version 3
run General-0-20250331-17:34:06-9636
attr configname General
attr datetime 20250331-17:34:06
attr datetimef 20250331-173406
attr experiment General
attr inifile omnetpp.ini
attr iterationvars ""
attr iterationvarsd ""
attr iterationvarsf ""
attr measurement ""
attr network RSVPTE4
attr processid 9636
attr repetition 0
attr replication #0
attr resultdir results
attr runnumber 0
attr seedset 0
config image-path ../../../images
config network RSVPTE4
config sim-time-limit 5s
config total-stack 64MiB
config **.host1.numApps 1
config **.host1.app[0].typename UdpBasicApp
config **.host1.app[0].localPort 100
config **.host1.app[0].destPort 100
config **.host1.app[0].messageLength "128 bytes"
config **.host1.app[0].sendInterval 0.01s
config **.host1.app[0].destAddresses "\"host3\""
config **.host2.numApps 1
config **.host2.app[0].typename UdpBasicApp
config **.host2.app[0].localPort 100
config **.host2.app[0].destPort 100
config **.host2.app[0].messageLength "128 bytes"
config **.host2.app[0].sendInterval 0.01s
config **.host2.app[0].destAddresses "\"host4\""
config **.host{3..4}.numApps 1
config **.host{3..4}.app[0].typename UdpSink
config **.host{3..4}.app[0].localPort 100
config **.host1.ipv4.routingTable.routingFile "\"host1.rt\""
config **.host2.ipv4.routingTable.routingFile "\"host2.rt\""
config **.host3.ipv4.routingTable.routingFile "\"host3.rt\""
config **.host4.ipv4.routingTable.routingFile "\"host4.rt\""
config **.host5.ipv4.routingTable.routingFile "\"host5.rt\""
config **.LSR1.classifier.config "xmldoc(\"LSR1_fec.xml\")"
config **.LSR1.rsvp.traffic "xmldoc(\"LSR1_rsvp.xml\")"
config **.LSR*.rsvp.helloInterval 0.2s
config **.LSR*.rsvp.helloTimeout 0.5s
config **.LSR1.ipv4.routingTable.routingFile "\"LSR1.rt\""
config **.LSR2.ipv4.routingTable.routingFile "\"LSR2.rt\""
config **.LSR3.ipv4.routingTable.routingFile "\"LSR3.rt\""
config **.LSR4.ipv4.routingTable.routingFile "\"LSR4.rt\""
config **.LSR5.ipv4.routingTable.routingFile "\"LSR5.rt\""
config **.LSR6.ipv4.routingTable.routingFile "\"LSR6.rt\""
config **.LSR7.ipv4.routingTable.routingFile "\"LSR7.rt\""
config **.ppp[*].queue.typename DropTailQueue
config **.ppp[*].queue.packetCapacity 10
config **.scenarioManager.script "xmldoc(\"scenario.xml\")"

par RSVPTE4.LSR1.pppg$o[0].channel typename "\"ned.DatarateChannel\""
par RSVPTE4.LSR1.pppg$o[0].channel disabled false
attr mutable ""
par RSVPTE4.LSR1.pppg$o[0].channel delay 0.015s
attr mutable ""
attr unit s
par RSVPTE4.LSR1.pppg$o[0].channel datarate 600000bps
attr mutable ""
attr unit bps
par RSVPTE4.LSR1.pppg$o[0].channel ber 0
attr mutable ""
par RSVPTE4.LSR1.pppg$o[0].channel per 0
attr mutable ""
par RSVPTE4.LSR2.pppg$o[0].channel typename "\"ned.DatarateChannel\""
par RSVPTE4.LSR2.pppg$o[0].channel disabled false
attr mutable ""
par RSVPTE4.LSR2.pppg$o[0].channel delay 0.015s
attr mutable ""
attr unit s
par RSVPTE4.LSR2.pppg$o[0].channel datarate 600000bps
attr mutable ""
attr unit bps
par RSVPTE4.LSR2.pppg$o[0].channel ber 0
attr mutable ""
par RSVPTE4.LSR2.pppg$o[0].channel per 0
attr mutable ""
par RSVPTE4.LSR1.pppg$o[1].channel typename "\"ned.DatarateChannel\""
par RSVPTE4.LSR1.pppg$o[1].channel disabled false
attr mutable ""
par RSVPTE4.LSR1.pppg$o[1].channel delay 0.005s
attr mutable ""
attr unit s
par RSVPTE4.LSR1.pppg$o[1].channel datarate 600000bps
attr mutable ""
attr unit bps
par RSVPTE4.LSR1.pppg$o[1].channel ber 0
attr mutable ""
par RSVPTE4.LSR1.pppg$o[1].channel per 0
attr mutable ""
par RSVPTE4.LSR3.pppg$o[0].channel typename "\"ned.DatarateChannel\""
par RSVPTE4.LSR3.pppg$o[0].channel disabled false
attr mutable ""
par RSVPTE4.LSR3.pppg$o[0].channel delay 0.005s
attr mutable ""
attr unit s
par RSVPTE4.LSR3.pppg$o[0].channel datarate 600000bps
attr mutable ""
attr unit bps
par RSVPTE4.LSR3.pppg$o[0].channel ber 0
attr mutable ""
par RSVPTE4.LSR3.pppg$o[0].channel per 0
attr mutable ""
par RSVPTE4.host2.pppg$o[0].channel typename "\"ned.DatarateChannel\""
par RSVPTE4.host2.pppg$o[0].channel disabled false
attr mutable ""
par RSVPTE4.host2.pppg$o[0].channel delay 0.01s
attr mutable ""
attr unit s
par RSVPTE4.host2.pppg$o[0].channel datarate 600000bps
attr mutable ""
attr unit bps
par RSVPTE4.host2.pppg$o[0].channel ber 0
attr mutable ""
par RSVPTE4.host2.pppg$o[0].channel per 0
attr mutable ""
par RSVPTE4.LSR1.pppg$o[2].channel typename "\"ned.DatarateChannel\""
par RSVPTE4.LSR1.pppg$o[2].channel disabled false
attr mutable ""
par RSVPTE4.LSR1.pppg$o[2].channel delay 0.01s
attr mutable ""
attr unit s
par RSVPTE4.LSR1.pppg$o[2].channel datarate 600000bps
attr mutable ""
attr unit bps
par RSVPTE4.LSR1.pppg$o[2].channel ber 0
attr mutable ""
par RSVPTE4.LSR1.pppg$o[2].channel per 0
attr mutable ""
par RSVPTE4.host1.pppg$o[0].channel typename "\"ned.DatarateChannel\""
par RSVPTE4.host1.pppg$o[0].channel disabled false
attr mutable ""
par RSVPTE4.host1.pppg$o[0].channel delay 0.01s
attr mutable ""
attr unit s
par RSVPTE4.host1.pppg$o[0].channel datarate 600000bps
attr mutable ""
attr unit bps
par RSVPTE4.host1.pppg$o[0].channel ber 0
attr mutable ""
par RSVPTE4.host1.pppg$o[0].channel per 0
attr mutable ""
par RSVPTE4.LSR1.pppg$o[3].channel typename "\"ned.DatarateChannel\""
par RSVPTE4.LSR1.pppg$o[3].channel disabled false
attr mutable ""
par RSVPTE4.LSR1.pppg$o[3].channel delay 0.01s
attr mutable ""
attr unit s
par RSVPTE4.LSR1.pppg$o[3].channel datarate 600000bps
attr mutable ""
attr unit bps
par RSVPTE4.LSR1.pppg$o[3].channel ber 0
attr mutable ""
par RSVPTE4.LSR1.pppg$o[3].channel per 0
attr mutable ""
par RSVPTE4.LSR2.pppg$o[1].channel typename "\"ned.DatarateChannel\""
par RSVPTE4.LSR2.pppg$o[1].channel disabled false
attr mutable ""
par RSVPTE4.LSR2.pppg$o[1].channel delay 0.005s
attr mutable ""
attr unit s
par RSVPTE4.LSR2.pppg$o[1].channel datarate 600000bps
attr mutable ""
attr unit bps
par RSVPTE4.LSR2.pppg$o[1].channel ber 0
attr mutable ""
par RSVPTE4.LSR2.pppg$o[1].channel per 0
attr mutable ""
par RSVPTE4.LSR4.pppg$o[0].channel typename "\"ned.DatarateChannel\""
par RSVPTE4.LSR4.pppg$o[0].channel disabled false
attr mutable ""
par RSVPTE4.LSR4.pppg$o[0].channel delay 0.005s
attr mutable ""
attr unit s
par RSVPTE4.LSR4.pppg$o[0].channel datarate 600000bps
attr mutable ""
attr unit bps
par RSVPTE4.LSR4.pppg$o[0].channel ber 0
attr mutable ""
par RSVPTE4.LSR4.pppg$o[0].channel per 0
attr mutable ""
par RSVPTE4.LSR3.pppg$o[1].channel typename "\"ned.DatarateChannel\""
par RSVPTE4.LSR3.pppg$o[1].channel disabled false
attr mutable ""
par RSVPTE4.LSR3.pppg$o[1].channel delay 0.005s
attr mutable ""
attr unit s
par RSVPTE4.LSR3.pppg$o[1].channel datarate 600000bps
attr mutable ""
attr unit bps
par RSVPTE4.LSR3.pppg$o[1].channel ber 0
attr mutable ""
par RSVPTE4.LSR3.pppg$o[1].channel per 0
attr mutable ""
par RSVPTE4.LSR4.pppg$o[2].channel typename "\"ned.DatarateChannel\""
par RSVPTE4.LSR4.pppg$o[2].channel disabled false
attr mutable ""
par RSVPTE4.LSR4.pppg$o[2].channel delay 0.005s
attr mutable ""
attr unit s
par RSVPTE4.LSR4.pppg$o[2].channel datarate 600000bps
attr mutable ""
attr unit bps
par RSVPTE4.LSR4.pppg$o[2].channel ber 0
attr mutable ""
par RSVPTE4.LSR4.pppg$o[2].channel per 0
attr mutable ""
par RSVPTE4.LSR4.pppg$o[1].channel typename "\"ned.DatarateChannel\""
par RSVPTE4.LSR4.pppg$o[1].channel disabled false
attr mutable ""
par RSVPTE4.LSR4.pppg$o[1].channel delay 0.005s
attr mutable ""
attr unit s
par RSVPTE4.LSR4.pppg$o[1].channel datarate 600000bps
attr mutable ""
attr unit bps
par RSVPTE4.LSR4.pppg$o[1].channel ber 0
attr mutable ""
par RSVPTE4.LSR4.pppg$o[1].channel per 0
attr mutable ""
par RSVPTE4.LSR5.pppg$o[0].channel typename "\"ned.DatarateChannel\""
par RSVPTE4.LSR5.pppg$o[0].channel disabled false
attr mutable ""
par RSVPTE4.LSR5.pppg$o[0].channel delay 0.005s
attr mutable ""
attr unit s
par RSVPTE4.LSR5.pppg$o[0].channel datarate 600000bps
attr mutable ""
attr unit bps
par RSVPTE4.LSR5.pppg$o[0].channel ber 0
attr mutable ""
par RSVPTE4.LSR5.pppg$o[0].channel per 0
attr mutable ""
par RSVPTE4.LSR5.pppg$o[1].channel typename "\"ned.DatarateChannel\""
par RSVPTE4.LSR5.pppg$o[1].channel disabled false
attr mutable ""
par RSVPTE4.LSR5.pppg$o[1].channel delay 0.01s
attr mutable ""
attr unit s
par RSVPTE4.LSR5.pppg$o[1].channel datarate 600000bps
attr mutable ""
attr unit bps
par RSVPTE4.LSR5.pppg$o[1].channel ber 0
attr mutable ""
par RSVPTE4.LSR5.pppg$o[1].channel per 0
attr mutable ""
par RSVPTE4.host3.pppg$o[0].channel typename "\"ned.DatarateChannel\""
par RSVPTE4.host3.pppg$o[0].channel disabled false
attr mutable ""
par RSVPTE4.host3.pppg$o[0].channel delay 0.01s
attr mutable ""
attr unit s
par RSVPTE4.host3.pppg$o[0].channel datarate 600000bps
attr mutable ""
attr unit bps
par RSVPTE4.host3.pppg$o[0].channel ber 0
attr mutable ""
par RSVPTE4.host3.pppg$o[0].channel per 0
attr mutable ""
par RSVPTE4.LSR5.pppg$o[2].channel typename "\"ned.DatarateChannel\""
par RSVPTE4.LSR5.pppg$o[2].channel disabled false
attr mutable ""
par RSVPTE4.LSR5.pppg$o[2].channel delay 0.01s
attr mutable ""
attr unit s
par RSVPTE4.LSR5.pppg$o[2].channel datarate 600000bps
attr mutable ""
attr unit bps
par RSVPTE4.LSR5.pppg$o[2].channel ber 0
attr mutable ""
par RSVPTE4.LSR5.pppg$o[2].channel per 0
attr mutable ""
par RSVPTE4.host4.pppg$o[0].channel typename "\"ned.DatarateChannel\""
par RSVPTE4.host4.pppg$o[0].channel disabled false
attr mutable ""
par RSVPTE4.host4.pppg$o[0].channel delay 0.01s
attr mutable ""
attr unit s
par RSVPTE4.host4.pppg$o[0].channel datarate 600000bps
attr mutable ""
attr unit bps
par RSVPTE4.host4.pppg$o[0].channel ber 0
attr mutable ""
par RSVPTE4.host4.pppg$o[0].channel per 0
attr mutable ""
par RSVPTE4.LSR2.pppg$o[2].channel typename "\"ned.DatarateChannel\""
par RSVPTE4.LSR2.pppg$o[2].channel disabled false
attr mutable ""
par RSVPTE4.LSR2.pppg$o[2].channel delay 0.01s
attr mutable ""
attr unit s
par RSVPTE4.LSR2.pppg$o[2].channel datarate 600000bps
attr mutable ""
attr unit bps
par RSVPTE4.LSR2.pppg$o[2].channel ber 0
attr mutable ""
par RSVPTE4.LSR2.pppg$o[2].channel per 0
attr mutable ""
par RSVPTE4.LSR6.pppg$o[0].channel typename "\"ned.DatarateChannel\""
par RSVPTE4.LSR6.pppg$o[0].channel disabled false
attr mutable ""
par RSVPTE4.LSR6.pppg$o[0].channel delay 0.01s
attr mutable ""
attr unit s
par RSVPTE4.LSR6.pppg$o[0].channel datarate 600000bps
attr mutable ""
attr unit bps
par RSVPTE4.LSR6.pppg$o[0].channel ber 0
attr mutable ""
par RSVPTE4.LSR6.pppg$o[0].channel per 0
attr mutable ""
par RSVPTE4.LSR5.pppg$o[3].channel typename "\"ned.DatarateChannel\""
par RSVPTE4.LSR5.pppg$o[3].channel disabled false
attr mutable ""
par RSVPTE4.LSR5.pppg$o[3].channel delay 0.01s
attr mutable ""
attr unit s
par RSVPTE4.LSR5.pppg$o[3].channel datarate 600000bps
attr mutable ""
attr unit bps
par RSVPTE4.LSR5.pppg$o[3].channel ber 0
attr mutable ""
par RSVPTE4.LSR5.pppg$o[3].channel per 0
attr mutable ""
par RSVPTE4.LSR6.pppg$o[1].channel typename "\"ned.DatarateChannel\""
par RSVPTE4.LSR6.pppg$o[1].channel disabled false
attr mutable ""
par RSVPTE4.LSR6.pppg$o[1].channel delay 0.01s
attr mutable ""
attr unit s
par RSVPTE4.LSR6.pppg$o[1].channel datarate 600000bps
attr mutable ""
attr unit bps
par RSVPTE4.LSR6.pppg$o[1].channel ber 0
attr mutable ""
par RSVPTE4.LSR6.pppg$o[1].channel per 0
attr mutable ""
par RSVPTE4.LSR3.pppg$o[2].channel typename "\"ned.DatarateChannel\""
par RSVPTE4.LSR3.pppg$o[2].channel disabled false
attr mutable ""
par RSVPTE4.LSR3.pppg$o[2].channel delay 0.01s
attr mutable ""
attr unit s
par RSVPTE4.LSR3.pppg$o[2].channel datarate 600000bps
attr mutable ""
attr unit bps
par RSVPTE4.LSR3.pppg$o[2].channel ber 0
attr mutable ""
par RSVPTE4.LSR3.pppg$o[2].channel per 0
attr mutable ""
par RSVPTE4.LSR7.pppg$o[0].channel typename "\"ned.DatarateChannel\""
par RSVPTE4.LSR7.pppg$o[0].channel disabled false
attr mutable ""
par RSVPTE4.LSR7.pppg$o[0].channel delay 0.01s
attr mutable ""
attr unit s
par RSVPTE4.LSR7.pppg$o[0].channel datarate 600000bps
attr mutable ""
attr unit bps
par RSVPTE4.LSR7.pppg$o[0].channel ber 0
attr mutable ""
par RSVPTE4.LSR7.pppg$o[0].channel per 0
attr mutable ""
par RSVPTE4.LSR5.pppg$o[4].channel typename "\"ned.DatarateChannel\""
par RSVPTE4.LSR5.pppg$o[4].channel disabled false
attr mutable ""
par RSVPTE4.LSR5.pppg$o[4].channel delay 0.01s
attr mutable ""
attr unit s
par RSVPTE4.LSR5.pppg$o[4].channel datarate 600000bps
attr mutable ""
attr unit bps
par RSVPTE4.LSR5.pppg$o[4].channel ber 0
attr mutable ""
par RSVPTE4.LSR5.pppg$o[4].channel per 0
attr mutable ""
par RSVPTE4.LSR7.pppg$o[1].channel typename "\"ned.DatarateChannel\""
par RSVPTE4.LSR7.pppg$o[1].channel disabled false
attr mutable ""
par RSVPTE4.LSR7.pppg$o[1].channel delay 0.01s
attr mutable ""
attr unit s
par RSVPTE4.LSR7.pppg$o[1].channel datarate 600000bps
attr mutable ""
attr unit bps
par RSVPTE4.LSR7.pppg$o[1].channel ber 0
attr mutable ""
par RSVPTE4.LSR7.pppg$o[1].channel per 0
attr mutable ""
par RSVPTE4.host5.pppg$o[0].channel typename "\"ned.DatarateChannel\""
par RSVPTE4.host5.pppg$o[0].channel disabled false
attr mutable ""
par RSVPTE4.host5.pppg$o[0].channel delay 0.01s
attr mutable ""
attr unit s
par RSVPTE4.host5.pppg$o[0].channel datarate 600000bps
attr mutable ""
attr unit bps
par RSVPTE4.host5.pppg$o[0].channel ber 0
attr mutable ""
par RSVPTE4.host5.pppg$o[0].channel per 0
attr mutable ""
par RSVPTE4.LSR1.pppg$o[4].channel typename "\"ned.DatarateChannel\""
par RSVPTE4.LSR1.pppg$o[4].channel disabled false
attr mutable ""
par RSVPTE4.LSR1.pppg$o[4].channel delay 0.01s
attr mutable ""
attr unit s
par RSVPTE4.LSR1.pppg$o[4].channel datarate 600000bps
attr mutable ""
attr unit bps
par RSVPTE4.LSR1.pppg$o[4].channel ber 0
attr mutable ""
par RSVPTE4.LSR1.pppg$o[4].channel per 0
attr mutable ""
par RSVPTE4.LSR1.interfaceTable typename "\"inet.networklayer.common.InterfaceTable\""
par RSVPTE4.LSR1.interfaceTable displayAddresses false
par RSVPTE4.LSR1.ted typename "\"inet.networklayer.ted.Ted\""
par RSVPTE4.LSR1.ted interfaceTableModule "\"RSVPTE4.LSR1.interfaceTable\""
par RSVPTE4.LSR1.ted routingTableModule "\"RSVPTE4.LSR1.ipv4.routingTable\""
par RSVPTE4.LSR1.linkStateRouting typename "\"inet.networklayer.ted.LinkStateRouting\""
par RSVPTE4.LSR1.linkStateRouting interfaceTableModule "\"RSVPTE4.LSR1.interfaceTable\""
par RSVPTE4.LSR1.linkStateRouting routingTableModule "\"RSVPTE4.LSR1.ipv4.routingTable\""
par RSVPTE4.LSR1.linkStateRouting tedModule "\"RSVPTE4.LSR1.ted\""
par RSVPTE4.LSR1.linkStateRouting peers "\"ppp0 ppp1\""
par RSVPTE4.LSR1.rsvp typename "\"inet.networklayer.rsvpte.RsvpTe\""
par RSVPTE4.LSR1.rsvp interfaceTableModule "\"RSVPTE4.LSR1.interfaceTable\""
par RSVPTE4.LSR1.rsvp routingTableModule "\"RSVPTE4.LSR1.ipv4.routingTable\""
par RSVPTE4.LSR1.rsvp libTableModule "\"RSVPTE4.LSR1.libTable\""
par RSVPTE4.LSR1.rsvp tedModule "\"RSVPTE4.LSR1.ted\""
par RSVPTE4.LSR1.rsvp classifierModule "\"^.classifier\""
par RSVPTE4.LSR1.rsvp traffic "<sessions>...</sessions> at D:/Simulaciones/inet4.5/examples/mpls/testte_reroute/\\LSR1_rsvp.xml:2"
par RSVPTE4.LSR1.rsvp peers "\"ppp0 ppp1\""
par RSVPTE4.LSR1.rsvp helloInterval 0.2s
attr unit s
par RSVPTE4.LSR1.rsvp helloTimeout 0.5s
attr unit s
par RSVPTE4.LSR1.classifier typename "\"inet.networklayer.rsvpte.RsvpClassifier\""
par RSVPTE4.LSR1.classifier routingTableModule "\"RSVPTE4.LSR1.ipv4.routingTable\""
par RSVPTE4.LSR1.classifier libTableModule "\"RSVPTE4.LSR1.libTable\""
par RSVPTE4.LSR1.classifier rsvpModule "\"RSVPTE4.LSR1.rsvp\""
par RSVPTE4.LSR1.classifier config "<fectable>...</fectable> at D:/Simulaciones/inet4.5/examples/mpls/testte_reroute/\\LSR1_fec.xml:2"
par RSVPTE4.LSR1.tn typename "\"inet.common.MessageDispatcher\""
par RSVPTE4.LSR1.tn displayStringTextFormat "\"processed %p pk (%l)\""
par RSVPTE4.LSR1.tn forwardServiceRegistration true
par RSVPTE4.LSR1.tn forwardProtocolRegistration true
par RSVPTE4.LSR1.ipv4.transportIn.channel typename "\"ned.IdealChannel\""
par RSVPTE4.LSR1.ipv4.up.out[0].channel typename "\"ned.IdealChannel\""
par RSVPTE4.LSR1.ipv4.lp.out[2].channel typename "\"ned.IdealChannel\""
par RSVPTE4.LSR1.ipv4.ifIn.channel typename "\"ned.IdealChannel\""
par RSVPTE4.LSR1.ipv4.configurator typename "\"inet.networklayer.configurator.ipv4.Ipv4NodeConfigurator\""
par RSVPTE4.LSR1.ipv4.configurator interfaceTableModule "\"RSVPTE4.LSR1.interfaceTable\""
par RSVPTE4.LSR1.ipv4.configurator routingTableModule "\"RSVPTE4.LSR1.ipv4.routingTable\""
par RSVPTE4.LSR1.ipv4.configurator networkConfiguratorModule "\"\""
par RSVPTE4.LSR1.ipv4.configurator configureRoutingTable true
par RSVPTE4.LSR1.ipv4.routingTable typename "\"inet.networklayer.ipv4.Ipv4RoutingTable\""
par RSVPTE4.LSR1.ipv4.routingTable interfaceTableModule "\"RSVPTE4.LSR1.interfaceTable\""
par RSVPTE4.LSR1.ipv4.routingTable routerId "\"auto\""
par RSVPTE4.LSR1.ipv4.routingTable netmaskRoutes "\"*\""
par RSVPTE4.LSR1.ipv4.routingTable forwarding true
par RSVPTE4.LSR1.ipv4.routingTable multicastForwarding false
par RSVPTE4.LSR1.ipv4.routingTable useAdminDist false
par RSVPTE4.LSR1.ipv4.routingTable routingFile "\"LSR1.rt\""
par RSVPTE4.LSR1.ipv4.natTable typename "\"inet.networklayer.ipv4.Ipv4NatTable\""
par RSVPTE4.LSR1.ipv4.natTable networkProtocolModule "\"^.ip\""
par RSVPTE4.LSR1.ipv4.natTable config "<config/> at content:1"
par RSVPTE4.LSR1.ipv4.up typename "\"inet.common.MessageDispatcher\""
par RSVPTE4.LSR1.ipv4.up displayStringTextFormat "\"processed %p pk (%l)\""
par RSVPTE4.LSR1.ipv4.up forwardServiceRegistration true
par RSVPTE4.LSR1.ipv4.up forwardProtocolRegistration true
par RSVPTE4.LSR1.ipv4.igmp typename "\"inet.networklayer.ipv4.Igmpv2\""
par RSVPTE4.LSR1.ipv4.igmp interfaceTableModule "\"RSVPTE4.LSR1.interfaceTable\""
par RSVPTE4.LSR1.ipv4.igmp routingTableModule "\"RSVPTE4.LSR1.ipv4.routingTable\""
par RSVPTE4.LSR1.ipv4.igmp crcMode "\"declared\""
attr enum declared,computed
par RSVPTE4.LSR1.ipv4.igmp enabled true
par RSVPTE4.LSR1.ipv4.igmp robustnessVariable 2
par RSVPTE4.LSR1.ipv4.igmp queryInterval 125s
attr unit s
par RSVPTE4.LSR1.ipv4.igmp queryResponseInterval 10s
attr unit s
par RSVPTE4.LSR1.ipv4.igmp groupMembershipInterval 260s
attr unit s
par RSVPTE4.LSR1.ipv4.igmp otherQuerierPresentInterval 255s
attr unit s
par RSVPTE4.LSR1.ipv4.igmp startupQueryInterval 31.25s
attr unit s
par RSVPTE4.LSR1.ipv4.igmp startupQueryCount 2
par RSVPTE4.LSR1.ipv4.igmp lastMemberQueryInterval 1s
attr unit s
par RSVPTE4.LSR1.ipv4.igmp lastMemberQueryCount 2
par RSVPTE4.LSR1.ipv4.igmp unsolicitedReportInterval 10s
attr unit s
par RSVPTE4.LSR1.ipv4.icmp typename "\"inet.networklayer.ipv4.Icmp\""
par RSVPTE4.LSR1.ipv4.icmp interfaceTableModule "\"RSVPTE4.LSR1.interfaceTable\""
par RSVPTE4.LSR1.ipv4.icmp routingTableModule "\"RSVPTE4.LSR1.ipv4.routingTable\""
par RSVPTE4.LSR1.ipv4.icmp crcMode "\"declared\""
attr enum declared,computed
attr mutable ""
par RSVPTE4.LSR1.ipv4.icmp quoteLength 8B
attr mutable ""
attr unit B
par RSVPTE4.LSR1.ipv4.mp typename "\"inet.common.MessageDispatcher\""
par RSVPTE4.LSR1.ipv4.mp displayStringTextFormat "\"processed %p pk (%l)\""
par RSVPTE4.LSR1.ipv4.mp forwardServiceRegistration true
par RSVPTE4.LSR1.ipv4.mp forwardProtocolRegistration true
par RSVPTE4.LSR1.ipv4.ip typename "\"inet.networklayer.ipv4.Ipv4\""
par RSVPTE4.LSR1.ipv4.ip interfaceTableModule "\"RSVPTE4.LSR1.interfaceTable\""
par RSVPTE4.LSR1.ipv4.ip routingTableModule "\"RSVPTE4.LSR1.ipv4.routingTable\""
par RSVPTE4.LSR1.ipv4.ip arpModule "\"RSVPTE4.LSR1.ipv4.arp\""
par RSVPTE4.LSR1.ipv4.ip icmpModule "\"RSVPTE4.LSR1.ipv4.icmp\""
par RSVPTE4.LSR1.ipv4.ip crcMode "\"declared\""
attr enum declared,computed
par RSVPTE4.LSR1.ipv4.ip timeToLive 32
par RSVPTE4.LSR1.ipv4.ip multicastTimeToLive 32
par RSVPTE4.LSR1.ipv4.ip fragmentTimeout 60s
attr unit s
par RSVPTE4.LSR1.ipv4.ip limitedBroadcast false
par RSVPTE4.LSR1.ipv4.ip directBroadcastInterfaces "\"\""
scalar RSVPTE4.LSR1.ipv4.ip packetDropAddressResolutionFailed:count 0
attr interpolationmode none
attr recordingmode count
attr source packetDropReasonIsAddressResolutionFailed(packetDropped)
attr title "packet drop: address resolution failed, count"
scalar RSVPTE4.LSR1.ipv4.ip packetDropAddressResolutionFailed:sum(packetBytes) 0
attr interpolationmode none
attr recordingmode sum(packetBytes)
attr source packetDropReasonIsAddressResolutionFailed(packetDropped)
attr title "packet drop: address resolution failed, sum(packetBytes)"
scalar RSVPTE4.LSR1.ipv4.ip packetDropHopLimitReached:count 0
attr interpolationmode none
attr recordingmode count
attr source packetDropReasonIsHopLimitReached(packetDropped)
attr title "packet drop: hop limit reached, count"
scalar RSVPTE4.LSR1.ipv4.ip packetDropHopLimitReached:sum(packetBytes) 0
attr interpolationmode none
attr recordingmode sum(packetBytes)
attr source packetDropReasonIsHopLimitReached(packetDropped)
attr title "packet drop: hop limit reached, sum(packetBytes)"
scalar RSVPTE4.LSR1.ipv4.ip packetDropForwardingDisabled:count 0
attr interpolationmode none
attr recordingmode count
attr source packetDropReasonIsForwardingDisabled(packetDropped)
attr title "packet drop: forwarding disabled, count"
scalar RSVPTE4.LSR1.ipv4.ip packetDropForwardingDisabled:sum(packetBytes) 0
attr interpolationmode none
attr recordingmode sum(packetBytes)
attr source packetDropReasonIsForwardingDisabled(packetDropped)
attr title "packet drop: forwarding disabled, sum(packetBytes)"
scalar RSVPTE4.LSR1.ipv4.ip packetDropNoInterfaceFound:count 0
attr interpolationmode none
attr recordingmode count
attr source packetDropReasonIsNoInterfaceFound(packetDropped)
attr title "packet drop: no interface found, count"
scalar RSVPTE4.LSR1.ipv4.ip packetDropNoInterfaceFound:sum(packetBytes) 0
attr interpolationmode none
attr recordingmode sum(packetBytes)
attr source packetDropReasonIsNoInterfaceFound(packetDropped)
attr title "packet drop: no interface found, sum(packetBytes)"
scalar RSVPTE4.LSR1.ipv4.ip packetDropNoRouteFound:count 6
attr interpolationmode none
attr recordingmode count
attr source packetDropReasonIsNoRouteFound(packetDropped)
attr title "packet drop: no route found, count"
scalar RSVPTE4.LSR1.ipv4.ip packetDropNoRouteFound:sum(packetBytes) 936
attr interpolationmode none
attr recordingmode sum(packetBytes)
attr source packetDropReasonIsNoRouteFound(packetDropped)
attr title "packet drop: no route found, sum(packetBytes)"
scalar RSVPTE4.LSR1.ipv4.ip packetDropUndefined:count 0
attr interpolationmode none
attr recordingmode count
attr source packetDropReasonIsUndefined(packetDropped)
attr title "packet drop: undefined, count"
scalar RSVPTE4.LSR1.ipv4.ip packetDropUndefined:sum(packetBytes) 0
attr interpolationmode none
attr recordingmode sum(packetBytes)
attr source packetDropReasonIsUndefined(packetDropped)
attr title "packet drop: undefined, sum(packetBytes)"
par RSVPTE4.LSR1.ipv4.arp typename "\"inet.networklayer.arp.ipv4.Arp\""
par RSVPTE4.LSR1.ipv4.arp interfaceTableModule "\"RSVPTE4.LSR1.interfaceTable\""
par RSVPTE4.LSR1.ipv4.arp routingTableModule "\"RSVPTE4.LSR1.ipv4.routingTable\""
par RSVPTE4.LSR1.ipv4.arp retryTimeout 1s
attr unit s
par RSVPTE4.LSR1.ipv4.arp retryCount 3
par RSVPTE4.LSR1.ipv4.arp cacheTimeout 120s
attr unit s
par RSVPTE4.LSR1.ipv4.arp proxyArpInterfaces "\"*\""
scalar RSVPTE4.LSR1.ipv4.arp arpReplySent:count 0
attr recordingmode count
attr source arpReplySent
attr title "ARP replies sent, count"
scalar RSVPTE4.LSR1.ipv4.arp arpReplySent:sum(packetBytes) 0
attr recordingmode sum(packetBytes)
attr source arpReplySent
attr title "ARP replies sent, sum(packetBytes)"
scalar RSVPTE4.LSR1.ipv4.arp arpRequestSent:count 0
attr recordingmode count
attr source arpRequestSent
attr title "ARP request sent, count"
scalar RSVPTE4.LSR1.ipv4.arp arpRequestSent:sum(packetBytes) 0
attr recordingmode sum(packetBytes)
attr source arpRequestSent
attr title "ARP request sent, sum(packetBytes)"
scalar RSVPTE4.LSR1.ipv4.arp arpResolutionFailed:count 0
attr recordingmode count
attr title "ARP failed resolutions, count"
scalar RSVPTE4.LSR1.ipv4.arp arpResolutionCompleted:count 0
attr recordingmode count
attr title "ARP completed resolutions, count"
scalar RSVPTE4.LSR1.ipv4.arp arpResolutionInitiated:count 0
attr recordingmode count
attr title "ARP initiated resolutions, count"
par RSVPTE4.LSR1.ipv4.lp typename "\"inet.common.MessageDispatcher\""
par RSVPTE4.LSR1.ipv4.lp displayStringTextFormat "\"processed %p pk (%l)\""
par RSVPTE4.LSR1.ipv4.lp forwardServiceRegistration true
par RSVPTE4.LSR1.ipv4.lp forwardProtocolRegistration true
par RSVPTE4.LSR1.ipv4 typename "\"inet.networklayer.ipv4.Ipv4NetworkLayer\""
par RSVPTE4.LSR1.ipv4 forwarding true
par RSVPTE4.LSR1.ipv4 multicastForwarding false
par RSVPTE4.LSR1.ipv4 interfaceTableModule "\"RSVPTE4.LSR1.interfaceTable\""
par RSVPTE4.LSR1.ipv4 displayStringTextFormat "\"%i\""
par RSVPTE4.LSR1.nm typename "\"inet.common.MessageDispatcher\""
par RSVPTE4.LSR1.nm displayStringTextFormat "\"processed %p pk (%l)\""
par RSVPTE4.LSR1.nm forwardServiceRegistration true
par RSVPTE4.LSR1.nm forwardProtocolRegistration true
par RSVPTE4.LSR1.lo[0].upperLayerIn.channel typename "\"ned.IdealChannel\""
par RSVPTE4.LSR1.lo[0].lo.upperLayerOut.channel typename "\"ned.IdealChannel\""
par RSVPTE4.LSR1.lo[0].lo typename "\"inet.linklayer.loopback.Loopback\""
par RSVPTE4.LSR1.lo[0].lo interfaceTableModule "\"RSVPTE4.LSR1.interfaceTable\""
par RSVPTE4.LSR1.lo[0].lo mtu 4470B
attr unit B
scalar RSVPTE4.LSR1.lo[0].lo rcvdPkFromHl:count 1
attr interpolationmode none
attr recordingmode count
attr source packetReceivedFromUpper
attr title "packets received from higher layer, count"
scalar RSVPTE4.LSR1.lo[0].lo rcvdPkFromHl:sum(packetBytes) 25
attr interpolationmode none
attr recordingmode sum(packetBytes)
attr source packetReceivedFromUpper
attr title "packets received from higher layer, sum(packetBytes)"
scalar RSVPTE4.LSR1.lo[0].lo passedUpPk:count 1
attr interpolationmode none
attr recordingmode count
attr source packetSentToUpper
attr title "packets passed to higher layer, count"
scalar RSVPTE4.LSR1.lo[0].lo passedUpPk:sum(packetBytes) 25
attr interpolationmode none
attr recordingmode sum(packetBytes)
attr source packetSentToUpper
attr title "packets passed to higher layer, sum(packetBytes)"
par RSVPTE4.LSR1.lo[0] typename "\"inet.linklayer.loopback.LoopbackInterface\""
par RSVPTE4.LSR1.lo[0] displayStringTextFormat "\"%a (%i)\\n%m\""
par RSVPTE4.LSR1.lo[0] recordPcap false
par RSVPTE4.LSR1.lo[0] numPcapRecorders 0
par RSVPTE4.LSR1.lo[0] interfaceTableModule "\"RSVPTE4.LSR1.interfaceTable\""
scalar RSVPTE4.LSR1.lo[0] packetDropInterfaceDown:count 0
attr interpolationmode none
attr recordingmode count
attr source packetDropReasonIsInterfaceDown(packetDropped)
attr title "packet drops: interface down, count"
scalar RSVPTE4.LSR1.lo[0] packetDropInterfaceDown:sum(packetBytes) 0
attr interpolationmode none
attr recordingmode sum(packetBytes)
attr source packetDropReasonIsInterfaceDown(packetDropped)
attr title "packet drops: interface down, sum(packetBytes)"
scalar RSVPTE4.LSR1.lo[0] packetDropNoCarrier:count 0
attr interpolationmode none
attr recordingmode count
attr source packetDropReasonIsNoCarrier(packetDropped)
attr title "packet drops: no carrier, count"
scalar RSVPTE4.LSR1.lo[0] packetDropNoCarrier:sum(packetBytes) 0
attr interpolationmode none
attr recordingmode sum(packetBytes)
attr source packetDropReasonIsNoCarrier(packetDropped)
attr title "packet drops: no carrier, sum(packetBytes)"
par RSVPTE4.LSR1.ppp[0].phys$i.channel typename "\"ned.IdealChannel\""
par RSVPTE4.LSR1.ppp[0].ppp.phys$o.channel typename "\"ned.IdealChannel\""
par RSVPTE4.LSR1.ppp[0].ppp.upperLayerOut.channel typename "\"ned.IdealChannel\""
par RSVPTE4.LSR1.ppp[0].upperLayerIn.channel typename "\"ned.IdealChannel\""
par RSVPTE4.LSR1.ppp[0].queue typename "\"inet.queueing.queue.DropTailQueue\""
par RSVPTE4.LSR1.ppp[0].queue displayStringTextFormat "\"contains %p pk (%l) pushed %u\\npulled %o removed %r dropped %d\""
par RSVPTE4.LSR1.ppp[0].queue packetCapacity 10
par RSVPTE4.LSR1.ppp[0].queue dataCapacity -1b
attr unit b
par RSVPTE4.LSR1.ppp[0].queue dropperClass "\"inet::queueing::PacketAtCollectionEndDropper\""
par RSVPTE4.LSR1.ppp[0].queue comparatorClass "\"\""
par RSVPTE4.LSR1.ppp[0].queue bufferModule "\"\""
scalar RSVPTE4.LSR1.ppp[0].queue queueLength:last 0
attr autoWarmupFilter false
attr interpolationmode sample-hold
attr recordingmode last
attr source "warmup(atomic(constant0(packetPushEnded) + count(packetPushStarted) - count(packetPulled) - count(packetRemoved) - count(packetDropped)))"
attr title "queue length, last"
attr unit pk
scalar RSVPTE4.LSR1.ppp[0].queue queueLength:max 3
attr autoWarmupFilter false
attr interpolationmode sample-hold
attr recordingmode max
attr source "warmup(atomic(constant0(packetPushEnded) + count(packetPushStarted) - count(packetPulled) - count(packetRemoved) - count(packetDropped)))"
attr title "queue length, max"
attr unit pk
scalar RSVPTE4.LSR1.ppp[0].queue queueLength:timeavg 0.1779257543522
attr autoWarmupFilter false
attr interpolationmode sample-hold
attr recordingmode timeavg
attr source "warmup(atomic(constant0(packetPushEnded) + count(packetPushStarted) - count(packetPulled) - count(packetRemoved) - count(packetDropped)))"
attr title "queue length, timeavg"
attr unit pk
scalar RSVPTE4.LSR1.ppp[0].queue queueBitLength:last 0
attr autoWarmupFilter false
attr interpolationmode sample-hold
attr recordingmode last
attr source "warmup(atomic(constant0(packetPushEnded) + sum(packetLength(packetPushStarted)) - sum(packetLength(packetPulled)) - sum(packetLength(packetRemoved)) - sum(packetLength(packetDropped))))"
attr title "queue bit length, last"
attr unit b
scalar RSVPTE4.LSR1.ppp[0].queue queueBitLength:max 3808
attr autoWarmupFilter false
attr interpolationmode sample-hold
attr recordingmode max
attr source "warmup(atomic(constant0(packetPushEnded) + sum(packetLength(packetPushStarted)) - sum(packetLength(packetPulled)) - sum(packetLength(packetRemoved)) - sum(packetLength(packetDropped))))"
attr title "queue bit length, max"
attr unit b
scalar RSVPTE4.LSR1.ppp[0].queue queueBitLength:timeavg 218.36861611822
attr autoWarmupFilter false
attr interpolationmode sample-hold
attr recordingmode timeavg
attr source "warmup(atomic(constant0(packetPushEnded) + sum(packetLength(packetPushStarted)) - sum(packetLength(packetPulled)) - sum(packetLength(packetRemoved)) - sum(packetLength(packetDropped))))"
attr title "queue bit length, timeavg"
attr unit b
statistic RSVPTE4.LSR1.ppp[0].queue queueingTime:histogram
field count 932
field mean 0.00095453730875644
field stddev 0.0011229193063715
field min 0
field max 0.006277297075
field sum 0.889628771761
field sqrsum 0.0020231262261761
attr interpolationmode none
attr recordingmode histogram
attr source queueingTime(packetPulled)
attr title "queueing times"
attr unit s
bin	-inf	0
bin	0	530
bin	0.0001	0
bin	0.0002	1
bin	0.0003	0
bin	0.0004	0
bin	0.0005	0
bin	0.0006	0
bin	0.0007	0
bin	0.0008	2
bin	0.0009	2
bin	0.001	1
bin	0.0011	0
bin	0.0012	0
bin	0.0013	3
bin	0.0014	0
bin	0.0015	2
bin	0.0016	2
bin	0.0017	1
bin	0.0018	0
bin	0.0019	0
bin	0.002	1
bin	0.0021	99
bin	0.0022	280
bin	0.0023	0
bin	0.0024	1
bin	0.0025	0
bin	0.0026	0
bin	0.0027	0
bin	0.0028	0
bin	0.0029	0
bin	0.003	0
bin	0.0031	3
bin	0.0032	0
bin	0.0033	0
bin	0.0034	0
bin	0.0035	0
bin	0.0036	1
bin	0.0037	0
bin	0.0038	0
bin	0.0039	0
bin	0.004	0
bin	0.0041	0
bin	0.0042	0
bin	0.0043	1
bin	0.0044	0
bin	0.0045	0
bin	0.0046	0
bin	0.0047	0
bin	0.0048	0
bin	0.0049	0
bin	0.005	0
bin	0.0051	0
bin	0.0052	0
bin	0.0053	0
bin	0.0054	0
bin	0.0055	0
bin	0.0056	0
bin	0.0057	1
bin	0.0058	0
bin	0.0059	0
bin	0.006	0
bin	0.0061	0
bin	0.0062	1
bin	0.0063	0
bin	0.0064	0
bin	0.0065	0
bin	0.0066	0
bin	0.0067	0
bin	0.0068	0
bin	0.0069	0
bin	0.007	0
bin	0.0071	0
bin	0.0072	0
bin	0.0073	0
bin	0.0074	0
bin	0.0075	0
bin	0.0076	0
bin	0.0077	0
bin	0.0078	0
bin	0.0079	0
scalar RSVPTE4.LSR1.ppp[0].queue outgoingPackets:count 932
attr recordingmode count
attr source packetPulled
attr title "outgoing packets, count"
attr unit pk
scalar RSVPTE4.LSR1.ppp[0].queue outgoingPacketLengths:sum 1145320
attr interpolationmode none
attr recordingmode sum
attr source packetLength(packetPulled)
attr title "outgoing packet lengths, sum"
attr unit b
statistic RSVPTE4.LSR1.ppp[0].queue outgoingPacketLengths:histogram
field count 932
field mean 1228.8841201717
field stddev 308.56826697938
field min 168
field max 8224
field sum 1145320
field sqrsum 1496110144
attr interpolationmode none
attr recordingmode histogram
attr source packetLength(packetPulled)
attr title "outgoing packet lengths"
attr unit b
bin	-inf	0
bin	0	25
bin	200	0
bin	400	1
bin	600	23
bin	800	2
bin	1000	0
bin	1200	877
bin	1400	0
bin	1600	0
bin	1800	2
bin	2000	0
bin	2200	0
bin	2400	0
bin	2600	0
bin	2800	0
bin	3000	1
bin	3200	0
bin	3400	0
bin	3600	0
bin	3800	0
bin	4000	0
bin	4200	0
bin	4400	0
bin	4600	0
bin	4800	0
bin	5000	0
bin	5200	0
bin	5400	0
bin	5600	0
bin	5800	0
bin	6000	0
bin	6200	0
bin	6400	0
bin	6600	0
bin	6800	0
bin	7000	0
bin	7200	0
bin	7400	0
bin	7600	0
bin	7800	0
bin	8000	0
bin	8200	1
bin	8400	0
bin	8600	0
bin	8800	0
bin	9000	0
bin	9200	0
bin	9400	0
bin	9600	0
bin	9800	0
bin	10000	0
bin	10200	0
bin	10400	0
statistic RSVPTE4.LSR1.ppp[0].queue flowQueueingTime:histogram
field count 0
field mean nan
field stddev nan
field min nan
field max nan
field sum 0
field sqrsum 0
attr interpolationmode none
attr recordingmode histogram
attr source queueingTime(demuxFlow(packetPulled))
attr title "flow queueing times"
attr unit s
bin	-inf	0
bin	0	0
bin	1	0
scalar RSVPTE4.LSR1.ppp[0].queue incomingPackets:count 932
attr recordingmode count
attr source packetPushStarted
attr title "incoming packets, count"
attr unit pk
scalar RSVPTE4.LSR1.ppp[0].queue incomingPacketLengths:sum 1145320
attr interpolationmode none
attr recordingmode sum
attr source packetLength(packetPushStarted)
attr title "incoming packet lengths, sum"
attr unit b
statistic RSVPTE4.LSR1.ppp[0].queue incomingPacketLengths:histogram
field count 932
field mean 1228.8841201717
field stddev 308.56826697938
field min 168
field max 8224
field sum 1145320
field sqrsum 1496110144
attr interpolationmode none
attr recordingmode histogram
attr source packetLength(packetPushStarted)
attr title "incoming packet lengths"
attr unit b
bin	-inf	0
bin	0	25
bin	200	0
bin	400	1
bin	600	23
bin	800	2
bin	1000	0
bin	1200	877
bin	1400	0
bin	1600	0
bin	1800	2
bin	2000	0
bin	2200	0
bin	2400	0
bin	2600	0
bin	2800	0
bin	3000	1
bin	3200	0
bin	3400	0
bin	3600	0
bin	3800	0
bin	4000	0
bin	4200	0
bin	4400	0
bin	4600	0
bin	4800	0
bin	5000	0
bin	5200	0
bin	5400	0
bin	5600	0
bin	5800	0
bin	6000	0
bin	6200	0
bin	6400	0
bin	6600	0
bin	6800	0
bin	7000	0
bin	7200	0
bin	7400	0
bin	7600	0
bin	7800	0
bin	8000	0
bin	8200	1
bin	8400	0
bin	8600	0
bin	8800	0
bin	9000	0
bin	9200	0
bin	9400	0
bin	9600	0
bin	9800	0
bin	10000	0
bin	10200	0
bin	10400	0
scalar RSVPTE4.LSR1.ppp[0].queue droppedPacketsQueueOverflow:count 0
attr interpolationmode none
attr recordingmode count
attr source packetDropReasonIsQueueOverflow(packetDropped)
attr title "dropped packets: queue overflow, count"
attr unit pk
scalar RSVPTE4.LSR1.ppp[0].queue droppedPacketLengthsQueueOverflow:sum 0
attr interpolationmode none
attr recordingmode sum
attr source packetLength(packetDropReasonIsQueueOverflow(packetDropped))
attr title "dropped packet lengths: queue overflow, sum"
attr unit b
par RSVPTE4.LSR1.ppp[0].ppp typename "\"inet.linklayer.ppp.Ppp\""
par RSVPTE4.LSR1.ppp[0].ppp interfaceTableModule "\"RSVPTE4.LSR1.interfaceTable\""
par RSVPTE4.LSR1.ppp[0].ppp displayStringTextFormat "\"rate: %b\\nsent: %s, rcvd: %r\\nqueue: %q, drop: %d\""
par RSVPTE4.LSR1.ppp[0].ppp sendRawBytes false
par RSVPTE4.LSR1.ppp[0].ppp mtu 4470B
attr unit B
par RSVPTE4.LSR1.ppp[0].ppp stopOperationExtraTime -1s
attr unit s
par RSVPTE4.LSR1.ppp[0].ppp stopOperationTimeout 2s
attr unit s
scalar RSVPTE4.LSR1.ppp[0].ppp txPk:count 932
attr interpolationmode none
attr recordingmode count
attr source packetSentToLower
attr title "packets transmitted, count"
scalar RSVPTE4.LSR1.ppp[0].ppp txPk:sum(packetBytes) 149689
attr interpolationmode none
attr recordingmode sum(packetBytes)
attr source packetSentToLower
attr title "packets transmitted, sum(packetBytes)"
scalar RSVPTE4.LSR1.ppp[0].ppp rcvdPkFromHl:count 932
attr interpolationmode none
attr recordingmode count
attr source packetReceivedFromUpper
attr title "packets received from higher layer, count"
scalar RSVPTE4.LSR1.ppp[0].ppp rcvdPkFromHl:sum(packetBytes) 143165
attr interpolationmode none
attr recordingmode sum(packetBytes)
attr source packetReceivedFromUpper
attr title "packets received from higher layer, sum(packetBytes)"
scalar RSVPTE4.LSR1.ppp[0].ppp passedUpPk:count 60
attr interpolationmode none
attr recordingmode count
attr source packetSentToUpper
attr title "packets passed to higher layer, count"
scalar RSVPTE4.LSR1.ppp[0].ppp passedUpPk:sum(packetBytes) 5785
attr interpolationmode none
attr recordingmode sum(packetBytes)
attr source packetSentToUpper
attr title "packets passed to higher layer, sum(packetBytes)"
scalar RSVPTE4.LSR1.ppp[0].ppp packetDropIncorrectlyReceived:count 0
attr interpolationmode none
attr recordingmode count
attr source packetDropReasonIsIncorrectlyReceived(packetDropped)
attr title "packet drop: incorrectly received, count"
scalar RSVPTE4.LSR1.ppp[0].ppp packetDropIncorrectlyReceived:sum(packetBytes) 0
attr interpolationmode none
attr recordingmode sum(packetBytes)
attr source packetDropReasonIsIncorrectlyReceived(packetDropped)
attr title "packet drop: incorrectly received, sum(packetBytes)"
scalar RSVPTE4.LSR1.ppp[0].ppp packetDropInterfaceDown:count 0
attr interpolationmode none
attr recordingmode count
attr source packetDropReasonIsInterfaceDown(packetDropped)
attr title "packet drop: interface down, count"
scalar RSVPTE4.LSR1.ppp[0].ppp packetDropInterfaceDown:sum(packetBytes) 0
attr interpolationmode none
attr recordingmode sum(packetBytes)
attr source packetDropReasonIsInterfaceDown(packetDropped)
attr title "packet drop: interface down, sum(packetBytes)"
scalar RSVPTE4.LSR1.ppp[0].ppp rxPkOk:count 60
attr interpolationmode none
attr recordingmode count
attr source rxPkOk
attr title "packets received OK, count"
scalar RSVPTE4.LSR1.ppp[0].ppp rxPkOk:sum(packetBytes) 6205
attr interpolationmode none
attr recordingmode sum(packetBytes)
attr source rxPkOk
attr title "packets received OK, sum(packetBytes)"
scalar RSVPTE4.LSR1.ppp[0].ppp transmissionState:timeavg 0.39917066665721
attr interpolationmode sample-hold
attr recordingmode timeavg
attr source transmissionStateChanged
attr title "tx state, timeavg"
par RSVPTE4.LSR1.ppp[0] typename "\"inet.linklayer.ppp.PppInterface\""
par RSVPTE4.LSR1.ppp[0] displayStringTextFormat "\"%a (%i)\\n%m\""
par RSVPTE4.LSR1.ppp[0] recordPcap false
par RSVPTE4.LSR1.ppp[0] numPcapRecorders 0
par RSVPTE4.LSR1.ppp[0] interfaceTableModule "\"RSVPTE4.LSR1.interfaceTable\""
scalar RSVPTE4.LSR1.ppp[0] packetDropInterfaceDown:count 0
attr interpolationmode none
attr recordingmode count
attr source packetDropReasonIsInterfaceDown(packetDropped)
attr title "packet drops: interface down, count"
scalar RSVPTE4.LSR1.ppp[0] packetDropInterfaceDown:sum(packetBytes) 0
attr interpolationmode none
attr recordingmode sum(packetBytes)
attr source packetDropReasonIsInterfaceDown(packetDropped)
attr title "packet drops: interface down, sum(packetBytes)"
scalar RSVPTE4.LSR1.ppp[0] packetDropNoCarrier:count 0
attr interpolationmode none
attr recordingmode count
attr source packetDropReasonIsNoCarrier(packetDropped)
attr title "packet drops: no carrier, count"
scalar RSVPTE4.LSR1.ppp[0] packetDropNoCarrier:sum(packetBytes) 0
attr interpolationmode none
attr recordingmode sum(packetBytes)
attr source packetDropReasonIsNoCarrier(packetDropped)
attr title "packet drops: no carrier, sum(packetBytes)"
par RSVPTE4.LSR1.ppp[1].phys$i.channel typename "\"ned.IdealChannel\""
par RSVPTE4.LSR1.ppp[1].ppp.phys$o.channel typename "\"ned.IdealChannel\""
par RSVPTE4.LSR1.ppp[1].ppp.upperLayerOut.channel typename "\"ned.IdealChannel\""
par RSVPTE4.LSR1.ppp[1].upperLayerIn.channel typename "\"ned.IdealChannel\""
par RSVPTE4.LSR1.ppp[1].queue typename "\"inet.queueing.queue.DropTailQueue\""
par RSVPTE4.LSR1.ppp[1].queue displayStringTextFormat "\"contains %p pk (%l) pushed %u\\npulled %o removed %r dropped %d\""
par RSVPTE4.LSR1.ppp[1].queue packetCapacity 10
par RSVPTE4.LSR1.ppp[1].queue dataCapacity -1b
attr unit b
par RSVPTE4.LSR1.ppp[1].queue dropperClass "\"inet::queueing::PacketAtCollectionEndDropper\""
par RSVPTE4.LSR1.ppp[1].queue comparatorClass "\"\""
par RSVPTE4.LSR1.ppp[1].queue bufferModule "\"\""
scalar RSVPTE4.LSR1.ppp[1].queue queueLength:last 0
attr autoWarmupFilter false
attr interpolationmode sample-hold
attr recordingmode last
attr source "warmup(atomic(constant0(packetPushEnded) + count(packetPushStarted) - count(packetPulled) - count(packetRemoved) - count(packetDropped)))"
attr title "queue length, last"
attr unit pk
scalar RSVPTE4.LSR1.ppp[1].queue queueLength:max 2
attr autoWarmupFilter false
attr interpolationmode sample-hold
attr recordingmode max
attr source "warmup(atomic(constant0(packetPushEnded) + count(packetPushStarted) - count(packetPulled) - count(packetRemoved) - count(packetDropped)))"
attr title "queue length, max"
attr unit pk
scalar RSVPTE4.LSR1.ppp[1].queue queueLength:timeavg 0.004458126082
attr autoWarmupFilter false
attr interpolationmode sample-hold
attr recordingmode timeavg
attr source "warmup(atomic(constant0(packetPushEnded) + count(packetPushStarted) - count(packetPulled) - count(packetRemoved) - count(packetDropped)))"
attr title "queue length, timeavg"
attr unit pk
scalar RSVPTE4.LSR1.ppp[1].queue queueBitLength:last 0
attr autoWarmupFilter false
attr interpolationmode sample-hold
attr recordingmode last
attr source "warmup(atomic(constant0(packetPushEnded) + sum(packetLength(packetPushStarted)) - sum(packetLength(packetPulled)) - sum(packetLength(packetRemoved)) - sum(packetLength(packetDropped))))"
attr title "queue bit length, last"
attr unit b
scalar RSVPTE4.LSR1.ppp[1].queue queueBitLength:max 9376
attr autoWarmupFilter false
attr interpolationmode sample-hold
attr recordingmode max
attr source "warmup(atomic(constant0(packetPushEnded) + sum(packetLength(packetPushStarted)) - sum(packetLength(packetPulled)) - sum(packetLength(packetRemoved)) - sum(packetLength(packetDropped))))"
attr title "queue bit length, max"
attr unit b
scalar RSVPTE4.LSR1.ppp[1].queue queueBitLength:timeavg 10.196083475322
attr autoWarmupFilter false
attr interpolationmode sample-hold
attr recordingmode timeavg
attr source "warmup(atomic(constant0(packetPushEnded) + sum(packetLength(packetPushStarted)) - sum(packetLength(packetPulled)) - sum(packetLength(packetRemoved)) - sum(packetLength(packetDropped))))"
attr title "queue bit length, timeavg"
attr unit b
statistic RSVPTE4.LSR1.ppp[1].queue queueingTime:histogram
field count 159
field mean 0.00014019264408805
field stddev 0.0011205039557459
field min 0
field max 0.0138
field sum 0.02229063041
field sqrsum 0.00020149858256065
attr interpolationmode none
attr recordingmode histogram
attr source queueingTime(packetPulled)
attr title "queueing times"
attr unit s
bin	-inf	0
bin	0	150
bin	0.0002	1
bin	0.0004	0
bin	0.0006	0
bin	0.0008	4
bin	0.001	1
bin	0.0012	1
bin	0.0014	0
bin	0.0016	0
bin	0.0018	0
bin	0.002	1
bin	0.0022	0
bin	0.0024	0
bin	0.0026	0
bin	0.0028	0
bin	0.003	0
bin	0.0032	0
bin	0.0034	0
bin	0.0036	0
bin	0.0038	0
bin	0.004	0
bin	0.0042	0
bin	0.0044	0
bin	0.0046	0
bin	0.0048	0
bin	0.005	0
bin	0.0052	0
bin	0.0054	0
bin	0.0056	0
bin	0.0058	0
bin	0.006	0
bin	0.0062	0
bin	0.0064	0
bin	0.0066	0
bin	0.0068	0
bin	0.007	0
bin	0.0072	0
bin	0.0074	0
bin	0.0076	0
bin	0.0078	0
bin	0.008	0
bin	0.0082	0
bin	0.0084	0
bin	0.0086	0
bin	0.0088	0
bin	0.009	0
bin	0.0092	0
bin	0.0094	0
bin	0.0096	0
bin	0.0098	0
bin	0.01	0
bin	0.0102	0
bin	0.0104	0
bin	0.0106	0
bin	0.0108	0
bin	0.011	0
bin	0.0112	0
bin	0.0114	0
bin	0.0116	0
bin	0.0118	0
bin	0.012	0
bin	0.0122	0
bin	0.0124	0
bin	0.0126	0
bin	0.0128	0
bin	0.013	0
bin	0.0132	0
bin	0.0134	0
bin	0.0136	1
bin	0.0138	0
bin	0.014	0
bin	0.0142	0
bin	0.0144	0
bin	0.0146	0
bin	0.0148	0
bin	0.015	0
bin	0.0152	0
bin	0.0154	0
bin	0.0156	0
bin	0.0158	0
bin	0.016	0
bin	0.0162	0
bin	0.0164	0
bin	0.0166	0
bin	0.0168	0
bin	0.017	0
bin	0.0172	0
bin	0.0174	0
scalar RSVPTE4.LSR1.ppp[1].queue outgoingPackets:count 159
attr recordingmode count
attr source packetPulled
attr title "outgoing packets, count"
attr unit pk
scalar RSVPTE4.LSR1.ppp[1].queue outgoingPacketLengths:sum 179816
attr interpolationmode none
attr recordingmode sum
attr source packetLength(packetPulled)
attr title "outgoing packet lengths, sum"
attr unit b
statistic RSVPTE4.LSR1.ppp[1].queue outgoingPacketLengths:histogram
field count 159
field mean 1130.9182389937
field stddev 811.43045256435
field min 168
field max 9376
field sum 179816
field sqrsum 307387456
attr interpolationmode none
attr recordingmode histogram
attr source packetLength(packetPulled)
attr title "outgoing packet lengths"
attr unit b
bin	-inf	0
bin	0	25
bin	200	0
bin	400	1
bin	600	13
bin	800	1
bin	1000	0
bin	1200	115
bin	1400	0
bin	1600	0
bin	1800	1
bin	2000	0
bin	2200	0
bin	2400	0
bin	2600	0
bin	2800	0
bin	3000	2
bin	3200	0
bin	3400	0
bin	3600	0
bin	3800	0
bin	4000	0
bin	4200	0
bin	4400	0
bin	4600	0
bin	4800	0
bin	5000	0
bin	5200	0
bin	5400	0
bin	5600	0
bin	5800	0
bin	6000	0
bin	6200	0
bin	6400	0
bin	6600	0
bin	6800	0
bin	7000	0
bin	7200	0
bin	7400	0
bin	7600	0
bin	7800	0
bin	8000	0
bin	8200	0
bin	8400	0
bin	8600	0
bin	8800	0
bin	9000	0
bin	9200	1
bin	9400	0
bin	9600	0
bin	9800	0
bin	10000	0
bin	10200	0
bin	10400	0
bin	10600	0
bin	10800	0
bin	11000	0
bin	11200	0
bin	11400	0
bin	11600	0
bin	11800	0
statistic RSVPTE4.LSR1.ppp[1].queue flowQueueingTime:histogram
field count 0
field mean nan
field stddev nan
field min nan
field max nan
field sum 0
field sqrsum 0
attr interpolationmode none
attr recordingmode histogram
attr source queueingTime(demuxFlow(packetPulled))
attr title "flow queueing times"
attr unit s
bin	-inf	0
bin	0	0
bin	1	0
scalar RSVPTE4.LSR1.ppp[1].queue incomingPackets:count 159
attr recordingmode count
attr source packetPushStarted
attr title "incoming packets, count"
attr unit pk
scalar RSVPTE4.LSR1.ppp[1].queue incomingPacketLengths:sum 179816
attr interpolationmode none
attr recordingmode sum
attr source packetLength(packetPushStarted)
attr title "incoming packet lengths, sum"
attr unit b
statistic RSVPTE4.LSR1.ppp[1].queue incomingPacketLengths:histogram
field count 159
field mean 1130.9182389937
field stddev 811.43045256435
field min 168
field max 9376
field sum 179816
field sqrsum 307387456
attr interpolationmode none
attr recordingmode histogram
attr source packetLength(packetPushStarted)
attr title "incoming packet lengths"
attr unit b
bin	-inf	0
bin	0	25
bin	200	0
bin	400	1
bin	600	13
bin	800	1
bin	1000	0
bin	1200	115
bin	1400	0
bin	1600	0
bin	1800	1
bin	2000	0
bin	2200	0
bin	2400	0
bin	2600	0
bin	2800	0
bin	3000	2
bin	3200	0
bin	3400	0
bin	3600	0
bin	3800	0
bin	4000	0
bin	4200	0
bin	4400	0
bin	4600	0
bin	4800	0
bin	5000	0
bin	5200	0
bin	5400	0
bin	5600	0
bin	5800	0
bin	6000	0
bin	6200	0
bin	6400	0
bin	6600	0
bin	6800	0
bin	7000	0
bin	7200	0
bin	7400	0
bin	7600	0
bin	7800	0
bin	8000	0
bin	8200	0
bin	8400	0
bin	8600	0
bin	8800	0
bin	9000	0
bin	9200	1
bin	9400	0
bin	9600	0
bin	9800	0
bin	10000	0
bin	10200	0
bin	10400	0
bin	10600	0
bin	10800	0
bin	11000	0
bin	11200	0
bin	11400	0
bin	11600	0
bin	11800	0
scalar RSVPTE4.LSR1.ppp[1].queue droppedPacketsQueueOverflow:count 0
attr interpolationmode none
attr recordingmode count
attr source packetDropReasonIsQueueOverflow(packetDropped)
attr title "dropped packets: queue overflow, count"
attr unit pk
scalar RSVPTE4.LSR1.ppp[1].queue droppedPacketLengthsQueueOverflow:sum 0
attr interpolationmode none
attr recordingmode sum
attr source packetLength(packetDropReasonIsQueueOverflow(packetDropped))
attr title "dropped packet lengths: queue overflow, sum"
attr unit b
par RSVPTE4.LSR1.ppp[1].ppp typename "\"inet.linklayer.ppp.Ppp\""
par RSVPTE4.LSR1.ppp[1].ppp interfaceTableModule "\"RSVPTE4.LSR1.interfaceTable\""
par RSVPTE4.LSR1.ppp[1].ppp displayStringTextFormat "\"rate: %b\\nsent: %s, rcvd: %r\\nqueue: %q, drop: %d\""
par RSVPTE4.LSR1.ppp[1].ppp sendRawBytes false
par RSVPTE4.LSR1.ppp[1].ppp mtu 4470B
attr unit B
par RSVPTE4.LSR1.ppp[1].ppp stopOperationExtraTime -1s
attr unit s
par RSVPTE4.LSR1.ppp[1].ppp stopOperationTimeout 2s
attr unit s
scalar RSVPTE4.LSR1.ppp[1].ppp txPk:count 159
attr interpolationmode none
attr recordingmode count
attr source packetSentToLower
attr title "packets transmitted, count"
scalar RSVPTE4.LSR1.ppp[1].ppp txPk:sum(packetBytes) 23590
attr interpolationmode none
attr recordingmode sum(packetBytes)
attr source packetSentToLower
attr title "packets transmitted, sum(packetBytes)"
scalar RSVPTE4.LSR1.ppp[1].ppp rcvdPkFromHl:count 159
attr interpolationmode none
attr recordingmode count
attr source packetReceivedFromUpper
attr title "packets received from higher layer, count"
scalar RSVPTE4.LSR1.ppp[1].ppp rcvdPkFromHl:sum(packetBytes) 22477
attr interpolationmode none
attr recordingmode sum(packetBytes)
attr source packetReceivedFromUpper
attr title "packets received from higher layer, sum(packetBytes)"
scalar RSVPTE4.LSR1.ppp[1].ppp passedUpPk:count 57
attr interpolationmode none
attr recordingmode count
attr source packetSentToUpper
attr title "packets passed to higher layer, count"
scalar RSVPTE4.LSR1.ppp[1].ppp passedUpPk:sum(packetBytes) 5564
attr interpolationmode none
attr recordingmode sum(packetBytes)
attr source packetSentToUpper
attr title "packets passed to higher layer, sum(packetBytes)"
scalar RSVPTE4.LSR1.ppp[1].ppp packetDropIncorrectlyReceived:count 0
attr interpolationmode none
attr recordingmode count
attr source packetDropReasonIsIncorrectlyReceived(packetDropped)
attr title "packet drop: incorrectly received, count"
scalar RSVPTE4.LSR1.ppp[1].ppp packetDropIncorrectlyReceived:sum(packetBytes) 0
attr interpolationmode none
attr recordingmode sum(packetBytes)
attr source packetDropReasonIsIncorrectlyReceived(packetDropped)
attr title "packet drop: incorrectly received, sum(packetBytes)"
scalar RSVPTE4.LSR1.ppp[1].ppp packetDropInterfaceDown:count 0
attr interpolationmode none
attr recordingmode count
attr source packetDropReasonIsInterfaceDown(packetDropped)
attr title "packet drop: interface down, count"
scalar RSVPTE4.LSR1.ppp[1].ppp packetDropInterfaceDown:sum(packetBytes) 0
attr interpolationmode none
attr recordingmode sum(packetBytes)
attr source packetDropReasonIsInterfaceDown(packetDropped)
attr title "packet drop: interface down, sum(packetBytes)"
scalar RSVPTE4.LSR1.ppp[1].ppp rxPkOk:count 57
attr interpolationmode none
attr recordingmode count
attr source rxPkOk
attr title "packets received OK, count"
scalar RSVPTE4.LSR1.ppp[1].ppp rxPkOk:sum(packetBytes) 5963
attr interpolationmode none
attr recordingmode sum(packetBytes)
attr source rxPkOk
attr title "packets received OK, sum(packetBytes)"
scalar RSVPTE4.LSR1.ppp[1].ppp transmissionState:timeavg 0.0629066666726
attr interpolationmode sample-hold
attr recordingmode timeavg
attr source transmissionStateChanged
attr title "tx state, timeavg"
par RSVPTE4.LSR1.ppp[1] typename "\"inet.linklayer.ppp.PppInterface\""
par RSVPTE4.LSR1.ppp[1] displayStringTextFormat "\"%a (%i)\\n%m\""
par RSVPTE4.LSR1.ppp[1] recordPcap false
par RSVPTE4.LSR1.ppp[1] numPcapRecorders 0
par RSVPTE4.LSR1.ppp[1] interfaceTableModule "\"RSVPTE4.LSR1.interfaceTable\""
scalar RSVPTE4.LSR1.ppp[1] packetDropInterfaceDown:count 0
attr interpolationmode none
attr recordingmode count
attr source packetDropReasonIsInterfaceDown(packetDropped)
attr title "packet drops: interface down, count"
scalar RSVPTE4.LSR1.ppp[1] packetDropInterfaceDown:sum(packetBytes) 0
attr interpolationmode none
attr recordingmode sum(packetBytes)
attr source packetDropReasonIsInterfaceDown(packetDropped)
attr title "packet drops: interface down, sum(packetBytes)"
scalar RSVPTE4.LSR1.ppp[1] packetDropNoCarrier:count 0
attr interpolationmode none
attr recordingmode count
attr source packetDropReasonIsNoCarrier(packetDropped)
attr title "packet drops: no carrier, count"
scalar RSVPTE4.LSR1.ppp[1] packetDropNoCarrier:sum(packetBytes) 0
attr interpolationmode none
attr recordingmode sum(packetBytes)
attr source packetDropReasonIsNoCarrier(packetDropped)
attr title "packet drops: no carrier, sum(packetBytes)"
par RSVPTE4.LSR1.ppp[2].phys$i.channel typename "\"ned.IdealChannel\""
par RSVPTE4.LSR1.ppp[2].ppp.phys$o.channel typename "\"ned.IdealChannel\""
par RSVPTE4.LSR1.ppp[2].ppp.upperLayerOut.channel typename "\"ned.IdealChannel\""
par RSVPTE4.LSR1.ppp[2].upperLayerIn.channel typename "\"ned.IdealChannel\""
par RSVPTE4.LSR1.ppp[2].queue typename "\"inet.queueing.queue.DropTailQueue\""
par RSVPTE4.LSR1.ppp[2].queue displayStringTextFormat "\"contains %p pk (%l) pushed %u\\npulled %o removed %r dropped %d\""
par RSVPTE4.LSR1.ppp[2].queue packetCapacity 10
par RSVPTE4.LSR1.ppp[2].queue dataCapacity -1b
attr unit b
par RSVPTE4.LSR1.ppp[2].queue dropperClass "\"inet::queueing::PacketAtCollectionEndDropper\""
par RSVPTE4.LSR1.ppp[2].queue comparatorClass "\"\""
par RSVPTE4.LSR1.ppp[2].queue bufferModule "\"\""
scalar RSVPTE4.LSR1.ppp[2].queue queueLength:last 0
attr autoWarmupFilter false
attr interpolationmode sample-hold
attr recordingmode last
attr source "warmup(atomic(constant0(packetPushEnded) + count(packetPushStarted) - count(packetPulled) - count(packetRemoved) - count(packetDropped)))"
attr title "queue length, last"
attr unit pk
scalar RSVPTE4.LSR1.ppp[2].queue queueLength:max 0
attr autoWarmupFilter false
attr interpolationmode sample-hold
attr recordingmode max
attr source "warmup(atomic(constant0(packetPushEnded) + count(packetPushStarted) - count(packetPulled) - count(packetRemoved) - count(packetDropped)))"
attr title "queue length, max"
attr unit pk
scalar RSVPTE4.LSR1.ppp[2].queue queueLength:timeavg 0
attr autoWarmupFilter false
attr interpolationmode sample-hold
attr recordingmode timeavg
attr source "warmup(atomic(constant0(packetPushEnded) + count(packetPushStarted) - count(packetPulled) - count(packetRemoved) - count(packetDropped)))"
attr title "queue length, timeavg"
attr unit pk
scalar RSVPTE4.LSR1.ppp[2].queue queueBitLength:last 0
attr autoWarmupFilter false
attr interpolationmode sample-hold
attr recordingmode last
attr source "warmup(atomic(constant0(packetPushEnded) + sum(packetLength(packetPushStarted)) - sum(packetLength(packetPulled)) - sum(packetLength(packetRemoved)) - sum(packetLength(packetDropped))))"
attr title "queue bit length, last"
attr unit b
scalar RSVPTE4.LSR1.ppp[2].queue queueBitLength:max 0
attr autoWarmupFilter false
attr interpolationmode sample-hold
attr recordingmode max
attr source "warmup(atomic(constant0(packetPushEnded) + sum(packetLength(packetPushStarted)) - sum(packetLength(packetPulled)) - sum(packetLength(packetRemoved)) - sum(packetLength(packetDropped))))"
attr title "queue bit length, max"
attr unit b
scalar RSVPTE4.LSR1.ppp[2].queue queueBitLength:timeavg 0
attr autoWarmupFilter false
attr interpolationmode sample-hold
attr recordingmode timeavg
attr source "warmup(atomic(constant0(packetPushEnded) + sum(packetLength(packetPushStarted)) - sum(packetLength(packetPulled)) - sum(packetLength(packetRemoved)) - sum(packetLength(packetDropped))))"
attr title "queue bit length, timeavg"
attr unit b
statistic RSVPTE4.LSR1.ppp[2].queue queueingTime:histogram
field count 3
field mean 0
field stddev 0
field min 0
field max 0
field sum 0
field sqrsum 0
attr interpolationmode none
attr recordingmode histogram
attr source queueingTime(packetPulled)
attr title "queueing times"
attr unit s
bin	-inf	0
bin	-0.5	0
bin	-0.48	0
bin	-0.46	0
bin	-0.44	0
bin	-0.42	0
bin	-0.4	0
bin	-0.38	0
bin	-0.36	0
bin	-0.34	0
bin	-0.32	0
bin	-0.3	0
bin	-0.28	0
bin	-0.26	0
bin	-0.24	0
bin	-0.22	0
bin	-0.2	0
bin	-0.18	0
bin	-0.16	0
bin	-0.14	0
bin	-0.12	0
bin	-0.1	0
bin	-0.08	0
bin	-0.06	0
bin	-0.04	0
bin	-0.02	0
bin	0	3
bin	0.02	0
bin	0.04	0
bin	0.06	0
bin	0.08	0
bin	0.1	0
bin	0.12	0
bin	0.14	0
bin	0.16	0
bin	0.18	0
bin	0.2	0
bin	0.22	0
bin	0.24	0
bin	0.26	0
bin	0.28	0
bin	0.3	0
bin	0.32	0
bin	0.34	0
bin	0.36	0
bin	0.38	0
bin	0.4	0
bin	0.42	0
bin	0.44	0
bin	0.46	0
bin	0.48	0
bin	0.5	0
scalar RSVPTE4.LSR1.ppp[2].queue outgoingPackets:count 3
attr recordingmode count
attr source packetPulled
attr title "outgoing packets, count"
attr unit pk
scalar RSVPTE4.LSR1.ppp[2].queue outgoingPacketLengths:sum 1344
attr interpolationmode none
attr recordingmode sum
attr source packetLength(packetPulled)
attr title "outgoing packet lengths, sum"
attr unit b
statistic RSVPTE4.LSR1.ppp[2].queue outgoingPacketLengths:histogram
field count 3
field mean 448
field stddev 0
field min 448
field max 448
field sum 1344
field sqrsum 602112
attr interpolationmode none
attr recordingmode histogram
attr source packetLength(packetPulled)
attr title "outgoing packet lengths"
attr unit b
bin	-inf	0
bin	447	0
bin	448	3
bin	449	0
statistic RSVPTE4.LSR1.ppp[2].queue flowQueueingTime:histogram
field count 0
field mean nan
field stddev nan
field min nan
field max nan
field sum 0
field sqrsum 0
attr interpolationmode none
attr recordingmode histogram
attr source queueingTime(demuxFlow(packetPulled))
attr title "flow queueing times"
attr unit s
bin	-inf	0
bin	0	0
bin	1	0
scalar RSVPTE4.LSR1.ppp[2].queue incomingPackets:count 3
attr recordingmode count
attr source packetPushStarted
attr title "incoming packets, count"
attr unit pk
scalar RSVPTE4.LSR1.ppp[2].queue incomingPacketLengths:sum 1344
attr interpolationmode none
attr recordingmode sum
attr source packetLength(packetPushStarted)
attr title "incoming packet lengths, sum"
attr unit b
statistic RSVPTE4.LSR1.ppp[2].queue incomingPacketLengths:histogram
field count 3
field mean 448
field stddev 0
field min 448
field max 448
field sum 1344
field sqrsum 602112
attr interpolationmode none
attr recordingmode histogram
attr source packetLength(packetPushStarted)
attr title "incoming packet lengths"
attr unit b
bin	-inf	0
bin	447	0
bin	448	3
bin	449	0
scalar RSVPTE4.LSR1.ppp[2].queue droppedPacketsQueueOverflow:count 0
attr interpolationmode none
attr recordingmode count
attr source packetDropReasonIsQueueOverflow(packetDropped)
attr title "dropped packets: queue overflow, count"
attr unit pk
scalar RSVPTE4.LSR1.ppp[2].queue droppedPacketLengthsQueueOverflow:sum 0
attr interpolationmode none
attr recordingmode sum
attr source packetLength(packetDropReasonIsQueueOverflow(packetDropped))
attr title "dropped packet lengths: queue overflow, sum"
attr unit b
par RSVPTE4.LSR1.ppp[2].ppp typename "\"inet.linklayer.ppp.Ppp\""
par RSVPTE4.LSR1.ppp[2].ppp interfaceTableModule "\"RSVPTE4.LSR1.interfaceTable\""
par RSVPTE4.LSR1.ppp[2].ppp displayStringTextFormat "\"rate: %b\\nsent: %s, rcvd: %r\\nqueue: %q, drop: %d\""
par RSVPTE4.LSR1.ppp[2].ppp sendRawBytes false
par RSVPTE4.LSR1.ppp[2].ppp mtu 4470B
attr unit B
par RSVPTE4.LSR1.ppp[2].ppp stopOperationExtraTime -1s
attr unit s
par RSVPTE4.LSR1.ppp[2].ppp stopOperationTimeout 2s
attr unit s
scalar RSVPTE4.LSR1.ppp[2].ppp txPk:count 3
attr interpolationmode none
attr recordingmode count
attr source packetSentToLower
attr title "packets transmitted, count"
scalar RSVPTE4.LSR1.ppp[2].ppp txPk:sum(packetBytes) 189
attr interpolationmode none
attr recordingmode sum(packetBytes)
attr source packetSentToLower
attr title "packets transmitted, sum(packetBytes)"
scalar RSVPTE4.LSR1.ppp[2].ppp rcvdPkFromHl:count 3
attr interpolationmode none
attr recordingmode count
attr source packetReceivedFromUpper
attr title "packets received from higher layer, count"
scalar RSVPTE4.LSR1.ppp[2].ppp rcvdPkFromHl:sum(packetBytes) 168
attr interpolationmode none
attr recordingmode sum(packetBytes)
attr source packetReceivedFromUpper
attr title "packets received from higher layer, sum(packetBytes)"
scalar RSVPTE4.LSR1.ppp[2].ppp passedUpPk:count 498
attr interpolationmode none
attr recordingmode count
attr source packetSentToUpper
attr title "packets passed to higher layer, count"
scalar RSVPTE4.LSR1.ppp[2].ppp passedUpPk:sum(packetBytes) 77688
attr interpolationmode none
attr recordingmode sum(packetBytes)
attr source packetSentToUpper
attr title "packets passed to higher layer, sum(packetBytes)"
scalar RSVPTE4.LSR1.ppp[2].ppp packetDropIncorrectlyReceived:count 0
attr interpolationmode none
attr recordingmode count
attr source packetDropReasonIsIncorrectlyReceived(packetDropped)
attr title "packet drop: incorrectly received, count"
scalar RSVPTE4.LSR1.ppp[2].ppp packetDropIncorrectlyReceived:sum(packetBytes) 0
attr interpolationmode none
attr recordingmode sum(packetBytes)
attr source packetDropReasonIsIncorrectlyReceived(packetDropped)
attr title "packet drop: incorrectly received, sum(packetBytes)"
scalar RSVPTE4.LSR1.ppp[2].ppp packetDropInterfaceDown:count 0
attr interpolationmode none
attr recordingmode count
attr source packetDropReasonIsInterfaceDown(packetDropped)
attr title "packet drop: interface down, count"
scalar RSVPTE4.LSR1.ppp[2].ppp packetDropInterfaceDown:sum(packetBytes) 0
attr interpolationmode none
attr recordingmode sum(packetBytes)
attr source packetDropReasonIsInterfaceDown(packetDropped)
attr title "packet drop: interface down, sum(packetBytes)"
scalar RSVPTE4.LSR1.ppp[2].ppp rxPkOk:count 498
attr interpolationmode none
attr recordingmode count
attr source rxPkOk
attr title "packets received OK, count"
scalar RSVPTE4.LSR1.ppp[2].ppp rxPkOk:sum(packetBytes) 81174
attr interpolationmode none
attr recordingmode sum(packetBytes)
attr source rxPkOk
attr title "packets received OK, sum(packetBytes)"
scalar RSVPTE4.LSR1.ppp[2].ppp transmissionState:timeavg 0.000504
attr interpolationmode sample-hold
attr recordingmode timeavg
attr source transmissionStateChanged
attr title "tx state, timeavg"
par RSVPTE4.LSR1.ppp[2] typename "\"inet.linklayer.ppp.PppInterface\""
par RSVPTE4.LSR1.ppp[2] displayStringTextFormat "\"%a (%i)\\n%m\""
par RSVPTE4.LSR1.ppp[2] recordPcap false
par RSVPTE4.LSR1.ppp[2] numPcapRecorders 0
par RSVPTE4.LSR1.ppp[2] interfaceTableModule "\"RSVPTE4.LSR1.interfaceTable\""
scalar RSVPTE4.LSR1.ppp[2] packetDropInterfaceDown:count 0
attr interpolationmode none
attr recordingmode count
attr source packetDropReasonIsInterfaceDown(packetDropped)
attr title "packet drops: interface down, count"
scalar RSVPTE4.LSR1.ppp[2] packetDropInterfaceDown:sum(packetBytes) 0
attr interpolationmode none
attr recordingmode sum(packetBytes)
attr source packetDropReasonIsInterfaceDown(packetDropped)
attr title "packet drops: interface down, sum(packetBytes)"
scalar RSVPTE4.LSR1.ppp[2] packetDropNoCarrier:count 0
attr interpolationmode none
attr recordingmode count
attr source packetDropReasonIsNoCarrier(packetDropped)
attr title "packet drops: no carrier, count"
scalar RSVPTE4.LSR1.ppp[2] packetDropNoCarrier:sum(packetBytes) 0
attr interpolationmode none
attr recordingmode sum(packetBytes)
attr source packetDropReasonIsNoCarrier(packetDropped)
attr title "packet drops: no carrier, sum(packetBytes)"
par RSVPTE4.LSR1.ppp[3].phys$i.channel typename "\"ned.IdealChannel\""
par RSVPTE4.LSR1.ppp[3].ppp.phys$o.channel typename "\"ned.IdealChannel\""
par RSVPTE4.LSR1.ppp[3].ppp.upperLayerOut.channel typename "\"ned.IdealChannel\""
par RSVPTE4.LSR1.ppp[3].upperLayerIn.channel typename "\"ned.IdealChannel\""
par RSVPTE4.LSR1.ppp[3].queue typename "\"inet.queueing.queue.DropTailQueue\""
par RSVPTE4.LSR1.ppp[3].queue displayStringTextFormat "\"contains %p pk (%l) pushed %u\\npulled %o removed %r dropped %d\""
par RSVPTE4.LSR1.ppp[3].queue packetCapacity 10
par RSVPTE4.LSR1.ppp[3].queue dataCapacity -1b
attr unit b
par RSVPTE4.LSR1.ppp[3].queue dropperClass "\"inet::queueing::PacketAtCollectionEndDropper\""
par RSVPTE4.LSR1.ppp[3].queue comparatorClass "\"\""
par RSVPTE4.LSR1.ppp[3].queue bufferModule "\"\""
scalar RSVPTE4.LSR1.ppp[3].queue queueLength:last 0
attr autoWarmupFilter false
attr interpolationmode sample-hold
attr recordingmode last
attr source "warmup(atomic(constant0(packetPushEnded) + count(packetPushStarted) - count(packetPulled) - count(packetRemoved) - count(packetDropped)))"
attr title "queue length, last"
attr unit pk
scalar RSVPTE4.LSR1.ppp[3].queue queueLength:max 0
attr autoWarmupFilter false
attr interpolationmode sample-hold
attr recordingmode max
attr source "warmup(atomic(constant0(packetPushEnded) + count(packetPushStarted) - count(packetPulled) - count(packetRemoved) - count(packetDropped)))"
attr title "queue length, max"
attr unit pk
scalar RSVPTE4.LSR1.ppp[3].queue queueLength:timeavg 0
attr autoWarmupFilter false
attr interpolationmode sample-hold
attr recordingmode timeavg
attr source "warmup(atomic(constant0(packetPushEnded) + count(packetPushStarted) - count(packetPulled) - count(packetRemoved) - count(packetDropped)))"
attr title "queue length, timeavg"
attr unit pk
scalar RSVPTE4.LSR1.ppp[3].queue queueBitLength:last 0
attr autoWarmupFilter false
attr interpolationmode sample-hold
attr recordingmode last
attr source "warmup(atomic(constant0(packetPushEnded) + sum(packetLength(packetPushStarted)) - sum(packetLength(packetPulled)) - sum(packetLength(packetRemoved)) - sum(packetLength(packetDropped))))"
attr title "queue bit length, last"
attr unit b
scalar RSVPTE4.LSR1.ppp[3].queue queueBitLength:max 0
attr autoWarmupFilter false
attr interpolationmode sample-hold
attr recordingmode max
attr source "warmup(atomic(constant0(packetPushEnded) + sum(packetLength(packetPushStarted)) - sum(packetLength(packetPulled)) - sum(packetLength(packetRemoved)) - sum(packetLength(packetDropped))))"
attr title "queue bit length, max"
attr unit b
scalar RSVPTE4.LSR1.ppp[3].queue queueBitLength:timeavg 0
attr autoWarmupFilter false
attr interpolationmode sample-hold
attr recordingmode timeavg
attr source "warmup(atomic(constant0(packetPushEnded) + sum(packetLength(packetPushStarted)) - sum(packetLength(packetPulled)) - sum(packetLength(packetRemoved)) - sum(packetLength(packetDropped))))"
attr title "queue bit length, timeavg"
attr unit b
statistic RSVPTE4.LSR1.ppp[3].queue queueingTime:histogram
field count 3
field mean 0
field stddev 0
field min 0
field max 0
field sum 0
field sqrsum 0
attr interpolationmode none
attr recordingmode histogram
attr source queueingTime(packetPulled)
attr title "queueing times"
attr unit s
bin	-inf	0
bin	-0.5	0
bin	-0.48	0
bin	-0.46	0
bin	-0.44	0
bin	-0.42	0
bin	-0.4	0
bin	-0.38	0
bin	-0.36	0
bin	-0.34	0
bin	-0.32	0
bin	-0.3	0
bin	-0.28	0
bin	-0.26	0
bin	-0.24	0
bin	-0.22	0
bin	-0.2	0
bin	-0.18	0
bin	-0.16	0
bin	-0.14	0
bin	-0.12	0
bin	-0.1	0
bin	-0.08	0
bin	-0.06	0
bin	-0.04	0
bin	-0.02	0
bin	0	3
bin	0.02	0
bin	0.04	0
bin	0.06	0
bin	0.08	0
bin	0.1	0
bin	0.12	0
bin	0.14	0
bin	0.16	0
bin	0.18	0
bin	0.2	0
bin	0.22	0
bin	0.24	0
bin	0.26	0
bin	0.28	0
bin	0.3	0
bin	0.32	0
bin	0.34	0
bin	0.36	0
bin	0.38	0
bin	0.4	0
bin	0.42	0
bin	0.44	0
bin	0.46	0
bin	0.48	0
bin	0.5	0
scalar RSVPTE4.LSR1.ppp[3].queue outgoingPackets:count 3
attr recordingmode count
attr source packetPulled
attr title "outgoing packets, count"
attr unit pk
scalar RSVPTE4.LSR1.ppp[3].queue outgoingPacketLengths:sum 1344
attr interpolationmode none
attr recordingmode sum
attr source packetLength(packetPulled)
attr title "outgoing packet lengths, sum"
attr unit b
statistic RSVPTE4.LSR1.ppp[3].queue outgoingPacketLengths:histogram
field count 3
field mean 448
field stddev 0
field min 448
field max 448
field sum 1344
field sqrsum 602112
attr interpolationmode none
attr recordingmode histogram
attr source packetLength(packetPulled)
attr title "outgoing packet lengths"
attr unit b
bin	-inf	0
bin	447	0
bin	448	3
bin	449	0
statistic RSVPTE4.LSR1.ppp[3].queue flowQueueingTime:histogram
field count 0
field mean nan
field stddev nan
field min nan
field max nan
field sum 0
field sqrsum 0
attr interpolationmode none
attr recordingmode histogram
attr source queueingTime(demuxFlow(packetPulled))
attr title "flow queueing times"
attr unit s
bin	-inf	0
bin	0	0
bin	1	0
scalar RSVPTE4.LSR1.ppp[3].queue incomingPackets:count 3
attr recordingmode count
attr source packetPushStarted
attr title "incoming packets, count"
attr unit pk
scalar RSVPTE4.LSR1.ppp[3].queue incomingPacketLengths:sum 1344
attr interpolationmode none
attr recordingmode sum
attr source packetLength(packetPushStarted)
attr title "incoming packet lengths, sum"
attr unit b
statistic RSVPTE4.LSR1.ppp[3].queue incomingPacketLengths:histogram
field count 3
field mean 448
field stddev 0
field min 448
field max 448
field sum 1344
field sqrsum 602112
attr interpolationmode none
attr recordingmode histogram
attr source packetLength(packetPushStarted)
attr title "incoming packet lengths"
attr unit b
bin	-inf	0
bin	447	0
bin	448	3
bin	449	0
scalar RSVPTE4.LSR1.ppp[3].queue droppedPacketsQueueOverflow:count 0
attr interpolationmode none
attr recordingmode count
attr source packetDropReasonIsQueueOverflow(packetDropped)
attr title "dropped packets: queue overflow, count"
attr unit pk
scalar RSVPTE4.LSR1.ppp[3].queue droppedPacketLengthsQueueOverflow:sum 0
attr interpolationmode none
attr recordingmode sum
attr source packetLength(packetDropReasonIsQueueOverflow(packetDropped))
attr title "dropped packet lengths: queue overflow, sum"
attr unit b
par RSVPTE4.LSR1.ppp[3].ppp typename "\"inet.linklayer.ppp.Ppp\""
par RSVPTE4.LSR1.ppp[3].ppp interfaceTableModule "\"RSVPTE4.LSR1.interfaceTable\""
par RSVPTE4.LSR1.ppp[3].ppp displayStringTextFormat "\"rate: %b\\nsent: %s, rcvd: %r\\nqueue: %q, drop: %d\""
par RSVPTE4.LSR1.ppp[3].ppp sendRawBytes false
par RSVPTE4.LSR1.ppp[3].ppp mtu 4470B
attr unit B
par RSVPTE4.LSR1.ppp[3].ppp stopOperationExtraTime -1s
attr unit s
par RSVPTE4.LSR1.ppp[3].ppp stopOperationTimeout 2s
attr unit s
scalar RSVPTE4.LSR1.ppp[3].ppp txPk:count 3
attr interpolationmode none
attr recordingmode count
attr source packetSentToLower
attr title "packets transmitted, count"
scalar RSVPTE4.LSR1.ppp[3].ppp txPk:sum(packetBytes) 189
attr interpolationmode none
attr recordingmode sum(packetBytes)
attr source packetSentToLower
attr title "packets transmitted, sum(packetBytes)"
scalar RSVPTE4.LSR1.ppp[3].ppp rcvdPkFromHl:count 3
attr interpolationmode none
attr recordingmode count
attr source packetReceivedFromUpper
attr title "packets received from higher layer, count"
scalar RSVPTE4.LSR1.ppp[3].ppp rcvdPkFromHl:sum(packetBytes) 168
attr interpolationmode none
attr recordingmode sum(packetBytes)
attr source packetReceivedFromUpper
attr title "packets received from higher layer, sum(packetBytes)"
scalar RSVPTE4.LSR1.ppp[3].ppp passedUpPk:count 498
attr interpolationmode none
attr recordingmode count
attr source packetSentToUpper
attr title "packets passed to higher layer, count"
scalar RSVPTE4.LSR1.ppp[3].ppp passedUpPk:sum(packetBytes) 77688
attr interpolationmode none
attr recordingmode sum(packetBytes)
attr source packetSentToUpper
attr title "packets passed to higher layer, sum(packetBytes)"
scalar RSVPTE4.LSR1.ppp[3].ppp packetDropIncorrectlyReceived:count 0
attr interpolationmode none
attr recordingmode count
attr source packetDropReasonIsIncorrectlyReceived(packetDropped)
attr title "packet drop: incorrectly received, count"
scalar RSVPTE4.LSR1.ppp[3].ppp packetDropIncorrectlyReceived:sum(packetBytes) 0
attr interpolationmode none
attr recordingmode sum(packetBytes)
attr source packetDropReasonIsIncorrectlyReceived(packetDropped)
attr title "packet drop: incorrectly received, sum(packetBytes)"
scalar RSVPTE4.LSR1.ppp[3].ppp packetDropInterfaceDown:count 0
attr interpolationmode none
attr recordingmode count
attr source packetDropReasonIsInterfaceDown(packetDropped)
attr title "packet drop: interface down, count"
scalar RSVPTE4.LSR1.ppp[3].ppp packetDropInterfaceDown:sum(packetBytes) 0
attr interpolationmode none
attr recordingmode sum(packetBytes)
attr source packetDropReasonIsInterfaceDown(packetDropped)
attr title "packet drop: interface down, sum(packetBytes)"
scalar RSVPTE4.LSR1.ppp[3].ppp rxPkOk:count 498
attr interpolationmode none
attr recordingmode count
attr source rxPkOk
attr title "packets received OK, count"
scalar RSVPTE4.LSR1.ppp[3].ppp rxPkOk:sum(packetBytes) 81174
attr interpolationmode none
attr recordingmode sum(packetBytes)
attr source rxPkOk
attr title "packets received OK, sum(packetBytes)"
scalar RSVPTE4.LSR1.ppp[3].ppp transmissionState:timeavg 0.000504
attr interpolationmode sample-hold
attr recordingmode timeavg
attr source transmissionStateChanged
attr title "tx state, timeavg"
par RSVPTE4.LSR1.ppp[3] typename "\"inet.linklayer.ppp.PppInterface\""
par RSVPTE4.LSR1.ppp[3] displayStringTextFormat "\"%a (%i)\\n%m\""
par RSVPTE4.LSR1.ppp[3] recordPcap false
par RSVPTE4.LSR1.ppp[3] numPcapRecorders 0
par RSVPTE4.LSR1.ppp[3] interfaceTableModule "\"RSVPTE4.LSR1.interfaceTable\""
scalar RSVPTE4.LSR1.ppp[3] packetDropInterfaceDown:count 0
attr interpolationmode none
attr recordingmode count
attr source packetDropReasonIsInterfaceDown(packetDropped)
attr title "packet drops: interface down, count"
scalar RSVPTE4.LSR1.ppp[3] packetDropInterfaceDown:sum(packetBytes) 0
attr interpolationmode none
attr recordingmode sum(packetBytes)
attr source packetDropReasonIsInterfaceDown(packetDropped)
attr title "packet drops: interface down, sum(packetBytes)"
scalar RSVPTE4.LSR1.ppp[3] packetDropNoCarrier:count 0
attr interpolationmode none
attr recordingmode count
attr source packetDropReasonIsNoCarrier(packetDropped)
attr title "packet drops: no carrier, count"
scalar RSVPTE4.LSR1.ppp[3] packetDropNoCarrier:sum(packetBytes) 0
attr interpolationmode none
attr recordingmode sum(packetBytes)
attr source packetDropReasonIsNoCarrier(packetDropped)
attr title "packet drops: no carrier, sum(packetBytes)"
par RSVPTE4.LSR1.ppp[4].phys$i.channel typename "\"ned.IdealChannel\""
par RSVPTE4.LSR1.ppp[4].ppp.phys$o.channel typename "\"ned.IdealChannel\""
par RSVPTE4.LSR1.ppp[4].ppp.upperLayerOut.channel typename "\"ned.IdealChannel\""
par RSVPTE4.LSR1.ppp[4].upperLayerIn.channel typename "\"ned.IdealChannel\""
par RSVPTE4.LSR1.ppp[4].queue typename "\"inet.queueing.queue.DropTailQueue\""
par RSVPTE4.LSR1.ppp[4].queue displayStringTextFormat "\"contains %p pk (%l) pushed %u\\npulled %o removed %r dropped %d\""
par RSVPTE4.LSR1.ppp[4].queue packetCapacity 10
par RSVPTE4.LSR1.ppp[4].queue dataCapacity -1b
attr unit b
par RSVPTE4.LSR1.ppp[4].queue dropperClass "\"inet::queueing::PacketAtCollectionEndDropper\""
par RSVPTE4.LSR1.ppp[4].queue comparatorClass "\"\""
par RSVPTE4.LSR1.ppp[4].queue bufferModule "\"\""
scalar RSVPTE4.LSR1.ppp[4].queue queueLength:last 0
attr autoWarmupFilter false
attr interpolationmode sample-hold
attr recordingmode last
attr source "warmup(atomic(constant0(packetPushEnded) + count(packetPushStarted) - count(packetPulled) - count(packetRemoved) - count(packetDropped)))"
attr title "queue length, last"
attr unit pk
scalar RSVPTE4.LSR1.ppp[4].queue queueLength:max 0
attr autoWarmupFilter false
attr interpolationmode sample-hold
attr recordingmode max
attr source "warmup(atomic(constant0(packetPushEnded) + count(packetPushStarted) - count(packetPulled) - count(packetRemoved) - count(packetDropped)))"
attr title "queue length, max"
attr unit pk
scalar RSVPTE4.LSR1.ppp[4].queue queueLength:timeavg 0
attr autoWarmupFilter false
attr interpolationmode sample-hold
attr recordingmode timeavg
attr source "warmup(atomic(constant0(packetPushEnded) + count(packetPushStarted) - count(packetPulled) - count(packetRemoved) - count(packetDropped)))"
attr title "queue length, timeavg"
attr unit pk
scalar RSVPTE4.LSR1.ppp[4].queue queueBitLength:last 0
attr autoWarmupFilter false
attr interpolationmode sample-hold
attr recordingmode last
attr source "warmup(atomic(constant0(packetPushEnded) + sum(packetLength(packetPushStarted)) - sum(packetLength(packetPulled)) - sum(packetLength(packetRemoved)) - sum(packetLength(packetDropped))))"
attr title "queue bit length, last"
attr unit b
scalar RSVPTE4.LSR1.ppp[4].queue queueBitLength:max 0
attr autoWarmupFilter false
attr interpolationmode sample-hold
attr recordingmode max
attr source "warmup(atomic(constant0(packetPushEnded) + sum(packetLength(packetPushStarted)) - sum(packetLength(packetPulled)) - sum(packetLength(packetRemoved)) - sum(packetLength(packetDropped))))"
attr title "queue bit length, max"
attr unit b
scalar RSVPTE4.LSR1.ppp[4].queue queueBitLength:timeavg 0
attr autoWarmupFilter false
attr interpolationmode sample-hold
attr recordingmode timeavg
attr source "warmup(atomic(constant0(packetPushEnded) + sum(packetLength(packetPushStarted)) - sum(packetLength(packetPulled)) - sum(packetLength(packetRemoved)) - sum(packetLength(packetDropped))))"
attr title "queue bit length, timeavg"
attr unit b
statistic RSVPTE4.LSR1.ppp[4].queue queueingTime:histogram
field count 0
field mean nan
field stddev nan
field min nan
field max nan
field sum 0
field sqrsum 0
attr interpolationmode none
attr recordingmode histogram
attr source queueingTime(packetPulled)
attr title "queueing times"
attr unit s
bin	-inf	0
bin	0	0
bin	1	0
scalar RSVPTE4.LSR1.ppp[4].queue outgoingPackets:count 0
attr recordingmode count
attr source packetPulled
attr title "outgoing packets, count"
attr unit pk
scalar RSVPTE4.LSR1.ppp[4].queue outgoingPacketLengths:sum 0
attr interpolationmode none
attr recordingmode sum
attr source packetLength(packetPulled)
attr title "outgoing packet lengths, sum"
attr unit b
statistic RSVPTE4.LSR1.ppp[4].queue outgoingPacketLengths:histogram
field count 0
field mean nan
field stddev nan
field min nan
field max nan
field sum 0
field sqrsum 0
attr interpolationmode none
attr recordingmode histogram
attr source packetLength(packetPulled)
attr title "outgoing packet lengths"
attr unit b
bin	-inf	0
bin	0	0
bin	1	0
statistic RSVPTE4.LSR1.ppp[4].queue flowQueueingTime:histogram
field count 0
field mean nan
field stddev nan
field min nan
field max nan
field sum 0
field sqrsum 0
attr interpolationmode none
attr recordingmode histogram
attr source queueingTime(demuxFlow(packetPulled))
attr title "flow queueing times"
attr unit s
bin	-inf	0
bin	0	0
bin	1	0
scalar RSVPTE4.LSR1.ppp[4].queue incomingPackets:count 0
attr recordingmode count
attr source packetPushStarted
attr title "incoming packets, count"
attr unit pk
scalar RSVPTE4.LSR1.ppp[4].queue incomingPacketLengths:sum 0
attr interpolationmode none
attr recordingmode sum
attr source packetLength(packetPushStarted)
attr title "incoming packet lengths, sum"
attr unit b
statistic RSVPTE4.LSR1.ppp[4].queue incomingPacketLengths:histogram
field count 0
field mean nan
field stddev nan
field min nan
field max nan
field sum 0
field sqrsum 0
attr interpolationmode none
attr recordingmode histogram
attr source packetLength(packetPushStarted)
attr title "incoming packet lengths"
attr unit b
bin	-inf	0
bin	0	0
bin	1	0
scalar RSVPTE4.LSR1.ppp[4].queue droppedPacketsQueueOverflow:count 0
attr interpolationmode none
attr recordingmode count
attr source packetDropReasonIsQueueOverflow(packetDropped)
attr title "dropped packets: queue overflow, count"
attr unit pk
scalar RSVPTE4.LSR1.ppp[4].queue droppedPacketLengthsQueueOverflow:sum 0
attr interpolationmode none
attr recordingmode sum
attr source packetLength(packetDropReasonIsQueueOverflow(packetDropped))
attr title "dropped packet lengths: queue overflow, sum"
attr unit b
par RSVPTE4.LSR1.ppp[4].ppp typename "\"inet.linklayer.ppp.Ppp\""
par RSVPTE4.LSR1.ppp[4].ppp interfaceTableModule "\"RSVPTE4.LSR1.interfaceTable\""
par RSVPTE4.LSR1.ppp[4].ppp displayStringTextFormat "\"rate: %b\\nsent: %s, rcvd: %r\\nqueue: %q, drop: %d\""
par RSVPTE4.LSR1.ppp[4].ppp sendRawBytes false
par RSVPTE4.LSR1.ppp[4].ppp mtu 4470B
attr unit B
par RSVPTE4.LSR1.ppp[4].ppp stopOperationExtraTime -1s
attr unit s
par RSVPTE4.LSR1.ppp[4].ppp stopOperationTimeout 2s
attr unit s
scalar RSVPTE4.LSR1.ppp[4].ppp txPk:count 0
attr interpolationmode none
[...]
field count 0
field mean nan
field stddev nan
field min nan
field max nan
field sum 0
field sqrsum 0
attr interpolationmode none
attr recordingmode histogram
attr source packetLength(packetPulled)
attr title "outgoing packet lengths"
attr unit b
bin	-inf	0
bin	0	0
bin	1	0
statistic RSVPTE4.host5.ppp[0].queue flowQueueingTime:histogram
field count 0
field mean nan
field stddev nan
field min nan
field max nan
field sum 0
field sqrsum 0
attr interpolationmode none
attr recordingmode histogram
attr source queueingTime(demuxFlow(packetPulled))
attr title "flow queueing times"
attr unit s
bin	-inf	0
bin	0	0
bin	1	0
scalar RSVPTE4.host5.ppp[0].queue incomingPackets:count 0
attr recordingmode count
attr source packetPushStarted
attr title "incoming packets, count"
attr unit pk
scalar RSVPTE4.host5.ppp[0].queue incomingPacketLengths:sum 0
attr interpolationmode none
attr recordingmode sum
attr source packetLength(packetPushStarted)
attr title "incoming packet lengths, sum"
attr unit b
statistic RSVPTE4.host5.ppp[0].queue incomingPacketLengths:histogram
field count 0
field mean nan
field stddev nan
field min nan
field max nan
field sum 0
field sqrsum 0
attr interpolationmode none
attr recordingmode histogram
attr source packetLength(packetPushStarted)
attr title "incoming packet lengths"
attr unit b
bin	-inf	0
bin	0	0
bin	1	0
scalar RSVPTE4.host5.ppp[0].queue droppedPacketsQueueOverflow:count 0
attr interpolationmode none
attr recordingmode count
attr source packetDropReasonIsQueueOverflow(packetDropped)
attr title "dropped packets: queue overflow, count"
attr unit pk
scalar RSVPTE4.host5.ppp[0].queue droppedPacketLengthsQueueOverflow:sum 0
attr interpolationmode none
attr recordingmode sum
attr source packetLength(packetDropReasonIsQueueOverflow(packetDropped))
attr title "dropped packet lengths: queue overflow, sum"
attr unit b
par RSVPTE4.host5.ppp[0].ppp typename "\"inet.linklayer.ppp.Ppp\""
par RSVPTE4.host5.ppp[0].ppp interfaceTableModule "\"RSVPTE4.host5.interfaceTable\""
par RSVPTE4.host5.ppp[0].ppp displayStringTextFormat "\"rate: %b\\nsent: %s, rcvd: %r\\nqueue: %q, drop: %d\""
par RSVPTE4.host5.ppp[0].ppp sendRawBytes false
par RSVPTE4.host5.ppp[0].ppp mtu 4470B
attr unit B
par RSVPTE4.host5.ppp[0].ppp stopOperationExtraTime -1s
attr unit s
par RSVPTE4.host5.ppp[0].ppp stopOperationTimeout 2s
attr unit s
scalar RSVPTE4.host5.ppp[0].ppp txPk:count 0
attr interpolationmode none
attr recordingmode count
attr source packetSentToLower
attr title "packets transmitted, count"
scalar RSVPTE4.host5.ppp[0].ppp txPk:sum(packetBytes) 0
attr interpolationmode none
attr recordingmode sum(packetBytes)
attr source packetSentToLower
attr title "packets transmitted, sum(packetBytes)"
scalar RSVPTE4.host5.ppp[0].ppp rcvdPkFromHl:count 0
attr interpolationmode none
attr recordingmode count
attr source packetReceivedFromUpper
attr title "packets received from higher layer, count"
scalar RSVPTE4.host5.ppp[0].ppp rcvdPkFromHl:sum(packetBytes) 0
attr interpolationmode none
attr recordingmode sum(packetBytes)
attr source packetReceivedFromUpper
attr title "packets received from higher layer, sum(packetBytes)"
scalar RSVPTE4.host5.ppp[0].ppp passedUpPk:count 0
attr interpolationmode none
attr recordingmode count
attr source packetSentToUpper
attr title "packets passed to higher layer, count"
scalar RSVPTE4.host5.ppp[0].ppp passedUpPk:sum(packetBytes) 0
attr interpolationmode none
attr recordingmode sum(packetBytes)
attr source packetSentToUpper
attr title "packets passed to higher layer, sum(packetBytes)"
scalar RSVPTE4.host5.ppp[0].ppp packetDropIncorrectlyReceived:count 0
attr interpolationmode none
attr recordingmode count
attr source packetDropReasonIsIncorrectlyReceived(packetDropped)
attr title "packet drop: incorrectly received, count"
scalar RSVPTE4.host5.ppp[0].ppp packetDropIncorrectlyReceived:sum(packetBytes) 0
attr interpolationmode none
attr recordingmode sum(packetBytes)
attr source packetDropReasonIsIncorrectlyReceived(packetDropped)
attr title "packet drop: incorrectly received, sum(packetBytes)"
scalar RSVPTE4.host5.ppp[0].ppp packetDropInterfaceDown:count 0
attr interpolationmode none
attr recordingmode count
attr source packetDropReasonIsInterfaceDown(packetDropped)
attr title "packet drop: interface down, count"
scalar RSVPTE4.host5.ppp[0].ppp packetDropInterfaceDown:sum(packetBytes) 0
attr interpolationmode none
attr recordingmode sum(packetBytes)
attr source packetDropReasonIsInterfaceDown(packetDropped)
attr title "packet drop: interface down, sum(packetBytes)"
scalar RSVPTE4.host5.ppp[0].ppp rxPkOk:count 0
attr interpolationmode none
attr recordingmode count
attr source rxPkOk
attr title "packets received OK, count"
scalar RSVPTE4.host5.ppp[0].ppp rxPkOk:sum(packetBytes) 0
attr interpolationmode none
attr recordingmode sum(packetBytes)
attr source rxPkOk
attr title "packets received OK, sum(packetBytes)"
scalar RSVPTE4.host5.ppp[0].ppp transmissionState:timeavg 0
attr interpolationmode sample-hold
attr recordingmode timeavg
attr source transmissionStateChanged
attr title "tx state, timeavg"
par RSVPTE4.host5.ppp[0] typename "\"inet.linklayer.ppp.PppInterface\""
par RSVPTE4.host5.ppp[0] displayStringTextFormat "\"%a (%i)\\n%m\""
par RSVPTE4.host5.ppp[0] recordPcap false
par RSVPTE4.host5.ppp[0] numPcapRecorders 0
par RSVPTE4.host5.ppp[0] interfaceTableModule "\"RSVPTE4.host5.interfaceTable\""
scalar RSVPTE4.host5.ppp[0] packetDropInterfaceDown:count 0
attr interpolationmode none
attr recordingmode count
attr source packetDropReasonIsInterfaceDown(packetDropped)
attr title "packet drops: interface down, count"
scalar RSVPTE4.host5.ppp[0] packetDropInterfaceDown:sum(packetBytes) 0
attr interpolationmode none
attr recordingmode sum(packetBytes)
attr source packetDropReasonIsInterfaceDown(packetDropped)
attr title "packet drops: interface down, sum(packetBytes)"
scalar RSVPTE4.host5.ppp[0] packetDropNoCarrier:count 0
attr interpolationmode none
attr recordingmode count
attr source packetDropReasonIsNoCarrier(packetDropped)
attr title "packet drops: no carrier, count"
scalar RSVPTE4.host5.ppp[0] packetDropNoCarrier:sum(packetBytes) 0
attr interpolationmode none
attr recordingmode sum(packetBytes)
attr source packetDropReasonIsNoCarrier(packetDropped)
attr title "packet drops: no carrier, sum(packetBytes)"
par RSVPTE4.host5.ipv4.transportIn.channel typename "\"ned.IdealChannel\""
par RSVPTE4.host5.ipv4.up.out[0].channel typename "\"ned.IdealChannel\""
par RSVPTE4.host5.ipv4.lp.out[2].channel typename "\"ned.IdealChannel\""
par RSVPTE4.host5.ipv4.ifIn.channel typename "\"ned.IdealChannel\""
par RSVPTE4.host5.ipv4.configurator typename "\"inet.networklayer.configurator.ipv4.Ipv4NodeConfigurator\""
par RSVPTE4.host5.ipv4.configurator interfaceTableModule "\"RSVPTE4.host5.interfaceTable\""
par RSVPTE4.host5.ipv4.configurator routingTableModule "\"RSVPTE4.host5.ipv4.routingTable\""
par RSVPTE4.host5.ipv4.configurator networkConfiguratorModule "\"\""
par RSVPTE4.host5.ipv4.configurator configureRoutingTable true
par RSVPTE4.host5.ipv4.routingTable typename "\"inet.networklayer.ipv4.Ipv4RoutingTable\""
par RSVPTE4.host5.ipv4.routingTable interfaceTableModule "\"RSVPTE4.host5.interfaceTable\""
par RSVPTE4.host5.ipv4.routingTable routerId "\"auto\""
par RSVPTE4.host5.ipv4.routingTable netmaskRoutes "\"*\""
par RSVPTE4.host5.ipv4.routingTable forwarding false
par RSVPTE4.host5.ipv4.routingTable multicastForwarding false
par RSVPTE4.host5.ipv4.routingTable useAdminDist false
par RSVPTE4.host5.ipv4.routingTable routingFile "\"host5.rt\""
par RSVPTE4.host5.ipv4.natTable typename "\"inet.networklayer.ipv4.Ipv4NatTable\""
par RSVPTE4.host5.ipv4.natTable networkProtocolModule "\"^.ip\""
par RSVPTE4.host5.ipv4.natTable config "<config/> at content:1"
par RSVPTE4.host5.ipv4.up typename "\"inet.common.MessageDispatcher\""
par RSVPTE4.host5.ipv4.up displayStringTextFormat "\"processed %p pk (%l)\""
par RSVPTE4.host5.ipv4.up forwardServiceRegistration true
par RSVPTE4.host5.ipv4.up forwardProtocolRegistration true
par RSVPTE4.host5.ipv4.igmp typename "\"inet.networklayer.ipv4.Igmpv2\""
par RSVPTE4.host5.ipv4.igmp interfaceTableModule "\"RSVPTE4.host5.interfaceTable\""
par RSVPTE4.host5.ipv4.igmp routingTableModule "\"RSVPTE4.host5.ipv4.routingTable\""
par RSVPTE4.host5.ipv4.igmp crcMode "\"declared\""
attr enum declared,computed
par RSVPTE4.host5.ipv4.igmp enabled true
par RSVPTE4.host5.ipv4.igmp robustnessVariable 2
par RSVPTE4.host5.ipv4.igmp queryInterval 125s
attr unit s
par RSVPTE4.host5.ipv4.igmp queryResponseInterval 10s
attr unit s
par RSVPTE4.host5.ipv4.igmp groupMembershipInterval 260s
attr unit s
par RSVPTE4.host5.ipv4.igmp otherQuerierPresentInterval 255s
attr unit s
par RSVPTE4.host5.ipv4.igmp startupQueryInterval 31.25s
attr unit s
par RSVPTE4.host5.ipv4.igmp startupQueryCount 2
par RSVPTE4.host5.ipv4.igmp lastMemberQueryInterval 1s
attr unit s
par RSVPTE4.host5.ipv4.igmp lastMemberQueryCount 2
par RSVPTE4.host5.ipv4.igmp unsolicitedReportInterval 10s
attr unit s
par RSVPTE4.host5.ipv4.icmp typename "\"inet.networklayer.ipv4.Icmp\""
par RSVPTE4.host5.ipv4.icmp interfaceTableModule "\"RSVPTE4.host5.interfaceTable\""
par RSVPTE4.host5.ipv4.icmp routingTableModule "\"RSVPTE4.host5.ipv4.routingTable\""
par RSVPTE4.host5.ipv4.icmp crcMode "\"declared\""
attr enum declared,computed
attr mutable ""
par RSVPTE4.host5.ipv4.icmp quoteLength 8B
attr mutable ""
attr unit B
par RSVPTE4.host5.ipv4.mp typename "\"inet.common.MessageDispatcher\""
par RSVPTE4.host5.ipv4.mp displayStringTextFormat "\"processed %p pk (%l)\""
par RSVPTE4.host5.ipv4.mp forwardServiceRegistration true
par RSVPTE4.host5.ipv4.mp forwardProtocolRegistration true
par RSVPTE4.host5.ipv4.ip typename "\"inet.networklayer.ipv4.Ipv4\""
par RSVPTE4.host5.ipv4.ip interfaceTableModule "\"RSVPTE4.host5.interfaceTable\""
par RSVPTE4.host5.ipv4.ip routingTableModule "\"RSVPTE4.host5.ipv4.routingTable\""
par RSVPTE4.host5.ipv4.ip arpModule "\"RSVPTE4.host5.ipv4.arp\""
par RSVPTE4.host5.ipv4.ip icmpModule "\"RSVPTE4.host5.ipv4.icmp\""
par RSVPTE4.host5.ipv4.ip crcMode "\"declared\""
attr enum declared,computed
par RSVPTE4.host5.ipv4.ip timeToLive 32
par RSVPTE4.host5.ipv4.ip multicastTimeToLive 32
par RSVPTE4.host5.ipv4.ip fragmentTimeout 60s
attr unit s
par RSVPTE4.host5.ipv4.ip limitedBroadcast false
par RSVPTE4.host5.ipv4.ip directBroadcastInterfaces "\"\""
scalar RSVPTE4.host5.ipv4.ip packetDropAddressResolutionFailed:count 0
attr interpolationmode none
attr recordingmode count
attr source packetDropReasonIsAddressResolutionFailed(packetDropped)
attr title "packet drop: address resolution failed, count"
scalar RSVPTE4.host5.ipv4.ip packetDropAddressResolutionFailed:sum(packetBytes) 0
attr interpolationmode none
attr recordingmode sum(packetBytes)
attr source packetDropReasonIsAddressResolutionFailed(packetDropped)
attr title "packet drop: address resolution failed, sum(packetBytes)"
scalar RSVPTE4.host5.ipv4.ip packetDropHopLimitReached:count 0
attr interpolationmode none
attr recordingmode count
attr source packetDropReasonIsHopLimitReached(packetDropped)
attr title "packet drop: hop limit reached, count"
scalar RSVPTE4.host5.ipv4.ip packetDropHopLimitReached:sum(packetBytes) 0
attr interpolationmode none
attr recordingmode sum(packetBytes)
attr source packetDropReasonIsHopLimitReached(packetDropped)
attr title "packet drop: hop limit reached, sum(packetBytes)"
scalar RSVPTE4.host5.ipv4.ip packetDropForwardingDisabled:count 0
attr interpolationmode none
attr recordingmode count
attr source packetDropReasonIsForwardingDisabled(packetDropped)
attr title "packet drop: forwarding disabled, count"
scalar RSVPTE4.host5.ipv4.ip packetDropForwardingDisabled:sum(packetBytes) 0
attr interpolationmode none
attr recordingmode sum(packetBytes)
attr source packetDropReasonIsForwardingDisabled(packetDropped)
attr title "packet drop: forwarding disabled, sum(packetBytes)"
scalar RSVPTE4.host5.ipv4.ip packetDropNoInterfaceFound:count 0
attr interpolationmode none
attr recordingmode count
attr source packetDropReasonIsNoInterfaceFound(packetDropped)
attr title "packet drop: no interface found, count"
scalar RSVPTE4.host5.ipv4.ip packetDropNoInterfaceFound:sum(packetBytes) 0
attr interpolationmode none
attr recordingmode sum(packetBytes)
attr source packetDropReasonIsNoInterfaceFound(packetDropped)
attr title "packet drop: no interface found, sum(packetBytes)"
scalar RSVPTE4.host5.ipv4.ip packetDropNoRouteFound:count 0
attr interpolationmode none
attr recordingmode count
attr source packetDropReasonIsNoRouteFound(packetDropped)
attr title "packet drop: no route found, count"
scalar RSVPTE4.host5.ipv4.ip packetDropNoRouteFound:sum(packetBytes) 0
attr interpolationmode none
attr recordingmode sum(packetBytes)
attr source packetDropReasonIsNoRouteFound(packetDropped)
attr title "packet drop: no route found, sum(packetBytes)"
scalar RSVPTE4.host5.ipv4.ip packetDropUndefined:count 0
attr interpolationmode none
attr recordingmode count
attr source packetDropReasonIsUndefined(packetDropped)
attr title "packet drop: undefined, count"
scalar RSVPTE4.host5.ipv4.ip packetDropUndefined:sum(packetBytes) 0
attr interpolationmode none
attr recordingmode sum(packetBytes)
attr source packetDropReasonIsUndefined(packetDropped)
attr title "packet drop: undefined, sum(packetBytes)"
par RSVPTE4.host5.ipv4.arp typename "\"inet.networklayer.arp.ipv4.Arp\""
par RSVPTE4.host5.ipv4.arp interfaceTableModule "\"RSVPTE4.host5.interfaceTable\""
par RSVPTE4.host5.ipv4.arp routingTableModule "\"RSVPTE4.host5.ipv4.routingTable\""
par RSVPTE4.host5.ipv4.arp retryTimeout 1s
attr unit s
par RSVPTE4.host5.ipv4.arp retryCount 3
par RSVPTE4.host5.ipv4.arp cacheTimeout 120s
attr unit s
par RSVPTE4.host5.ipv4.arp proxyArpInterfaces "\"\""
scalar RSVPTE4.host5.ipv4.arp arpReplySent:count 0
attr recordingmode count
attr source arpReplySent
attr title "ARP replies sent, count"
scalar RSVPTE4.host5.ipv4.arp arpReplySent:sum(packetBytes) 0
attr recordingmode sum(packetBytes)
attr source arpReplySent
attr title "ARP replies sent, sum(packetBytes)"
scalar RSVPTE4.host5.ipv4.arp arpRequestSent:count 0
attr recordingmode count
attr source arpRequestSent
attr title "ARP request sent, count"
scalar RSVPTE4.host5.ipv4.arp arpRequestSent:sum(packetBytes) 0
attr recordingmode sum(packetBytes)
attr source arpRequestSent
attr title "ARP request sent, sum(packetBytes)"
scalar RSVPTE4.host5.ipv4.arp arpResolutionFailed:count 0
attr recordingmode count
attr title "ARP failed resolutions, count"
scalar RSVPTE4.host5.ipv4.arp arpResolutionCompleted:count 0
attr recordingmode count
attr title "ARP completed resolutions, count"
scalar RSVPTE4.host5.ipv4.arp arpResolutionInitiated:count 0
attr recordingmode count
attr title "ARP initiated resolutions, count"
par RSVPTE4.host5.ipv4.lp typename "\"inet.common.MessageDispatcher\""
par RSVPTE4.host5.ipv4.lp displayStringTextFormat "\"processed %p pk (%l)\""
par RSVPTE4.host5.ipv4.lp forwardServiceRegistration true
par RSVPTE4.host5.ipv4.lp forwardProtocolRegistration true
par RSVPTE4.host5.ipv4 typename "\"inet.networklayer.ipv4.Ipv4NetworkLayer\""
par RSVPTE4.host5.ipv4 forwarding false
par RSVPTE4.host5.ipv4 multicastForwarding false
par RSVPTE4.host5.ipv4 interfaceTableModule "\"RSVPTE4.host5.interfaceTable\""
par RSVPTE4.host5.ipv4 displayStringTextFormat "\"%i\""
par RSVPTE4.host5.nl typename "\"inet.common.MessageDispatcher\""
par RSVPTE4.host5.nl displayStringTextFormat "\"processed %p pk (%l)\""
par RSVPTE4.host5.nl forwardServiceRegistration true
par RSVPTE4.host5.nl forwardProtocolRegistration true
par RSVPTE4.host5.udp typename "\"inet.transportlayer.udp.Udp\""
par RSVPTE4.host5.udp interfaceTableModule "\"RSVPTE4.host5.interfaceTable\""
par RSVPTE4.host5.udp icmpModule "\"^.ipv4.icmp\""
par RSVPTE4.host5.udp icmpv6Module "\"^.ipv6.icmpv6\""
par RSVPTE4.host5.udp crcMode "\"declared\""
attr enum disabled,declared,computed
par RSVPTE4.host5.udp defaultMulticastLoop true
scalar RSVPTE4.host5.udp packetReceived:count 0
attr interpolationmode none
attr recordingmode count
attr source packetReceived
attr title "packets received, count"
scalar RSVPTE4.host5.udp packetReceived:sum(packetBytes) 0
attr interpolationmode none
attr recordingmode sum(packetBytes)
attr source packetReceived
attr title "packets received, sum(packetBytes)"
scalar RSVPTE4.host5.udp packetSent:count 0
attr interpolationmode none
attr recordingmode count
attr source packetSent
attr title "packets sent, count"
scalar RSVPTE4.host5.udp packetSent:sum(packetBytes) 0
attr interpolationmode none
attr recordingmode sum(packetBytes)
attr source packetSent
attr title "packets sent, sum(packetBytes)"
scalar RSVPTE4.host5.udp passedUpPk:count 0
attr interpolationmode none
attr recordingmode count
attr source packetSentToUpper
attr title "packets passed up, count"
scalar RSVPTE4.host5.udp droppedPkWrongPort:count 0
attr interpolationmode none
attr recordingmode count
attr source packetDropReasonIsNoPortFound(packetDropped)
attr title "packets dropped (wrong port), count"
scalar RSVPTE4.host5.udp droppedPkBadChecksum:count 0
attr interpolationmode none
attr recordingmode count
attr source packetDropReasonIsIncorrectlyReceived(packetDropped)
attr title "packets dropped (checksum error), count"
par RSVPTE4.host5.tcp typename "\"inet.transportlayer.tcp.Tcp\""
par RSVPTE4.host5.tcp crcMode "\"declared\""
attr enum declared,computed
par RSVPTE4.host5.tcp advertisedWindow 7504
par RSVPTE4.host5.tcp delayedAcksEnabled false
par RSVPTE4.host5.tcp nagleEnabled true
par RSVPTE4.host5.tcp limitedTransmitEnabled false
par RSVPTE4.host5.tcp increasedIWEnabled false
par RSVPTE4.host5.tcp sackSupport false
par RSVPTE4.host5.tcp windowScalingSupport false
par RSVPTE4.host5.tcp windowScalingFactor -1
par RSVPTE4.host5.tcp timestampSupport false
par RSVPTE4.host5.tcp mss 536
par RSVPTE4.host5.tcp msl 120s
attr unit s
par RSVPTE4.host5.tcp tcpAlgorithmClass "\"TcpReno\""
par RSVPTE4.host5.tcp useDataNotification false
par RSVPTE4.host5.tcp dupthresh 3
par RSVPTE4.host5.tcp initialSsthresh 4294967295
par RSVPTE4.host5.tcp stopOperationExtraTime 0s
attr unit s
par RSVPTE4.host5.tcp stopOperationTimeout 2s
attr unit s
par RSVPTE4.host5.tcp ecnWillingness false
par RSVPTE4.host5.tcp dctcpGamma 0.0625
par RSVPTE4.host5.tn typename "\"inet.common.MessageDispatcher\""
par RSVPTE4.host5.tn displayStringTextFormat "\"processed %p pk (%l)\""
par RSVPTE4.host5.tn forwardServiceRegistration true
par RSVPTE4.host5.tn forwardProtocolRegistration true
par RSVPTE4.host5.at typename "\"inet.common.MessageDispatcher\""
par RSVPTE4.host5.at displayStringTextFormat "\"processed %p pk (%l)\""
par RSVPTE4.host5.at forwardServiceRegistration true
par RSVPTE4.host5.at forwardProtocolRegistration true
par RSVPTE4.host5 typename "\"inet.node.inet.StandardHost\""
par RSVPTE4.host5 hasStatus false
par RSVPTE4.host5 osgModel "\"\""
par RSVPTE4.host5 osgModelColor "\"\""
par RSVPTE4.host5 canvasImage "\"\""
par RSVPTE4.host5 canvasImageColor "\"\""
par RSVPTE4.host5 recordPcap false
par RSVPTE4.host5 numPcapRecorders 0
par RSVPTE4.host5 numLoInterfaces 1
par RSVPTE4.host5 numWlanInterfaces 0
par RSVPTE4.host5 numEthInterfaces 0
par RSVPTE4.host5 numPppInterfaces 0
par RSVPTE4.host5 numTunInterfaces 0
par RSVPTE4.host5 numVirtInterfaces 0
par RSVPTE4.host5 fcsMode "\"declared\""
attr enum declared,computed
par RSVPTE4.host5 hasIpv4 true
par RSVPTE4.host5 hasIpv6 false
par RSVPTE4.host5 hasGn false
par RSVPTE4.host5 forwarding false
par RSVPTE4.host5 multicastForwarding false
par RSVPTE4.host5 hasUdp true
par RSVPTE4.host5 hasTcp true
par RSVPTE4.host5 hasSctp false
par RSVPTE4.host5 numApps 0
par RSVPTE4.scenarioManager typename "\"inet.common.scenario.ScenarioManager\""
par RSVPTE4.scenarioManager script "<scenario>...</scenario> at D:/Simulaciones/inet4.5/examples/mpls/testte_reroute/\\scenario.xml:2"
par RSVPTE4 typename "\"inet.examples.mpls.testte_reroute.RSVPTE4\""

